
  Mrv1611108211713492D          

  0  0  0     0  0            999 V3000
M  V30 BEGIN CTAB
M  V30 COUNTS 12 13 0 0 0
M  V30 BEGIN ATOM
M  V30 1 N 5.3343 -2.0521 0 0
M  V30 2 C 4.0583 -2.9401 0 0
M  V30 3 C 2.6507 -2.3152 0 0
M  V30 4 N 1.3352 0 0 0
M  V30 5 C 2.6507 -0.7762 0 0
M  V30 6 C 6.5774 -2.927 0 0
M  V30 7 C 5.3343 -0.4801 0 0
M  V30 8 C 4.5581 -4.4069 0 0
M  V30 9 C 6.1301 -4.4069 0 0
M  V30 10 C 1.3352 -3.0717 0 0
M  V30 11 C 0 -0.7565 0 0
M  V30 12 C 0 -2.3152 0 0
M  V30 END ATOM
M  V30 BEGIN BOND
M  V30 1 1 1 2
M  V30 2 1 1 6
M  V30 3 1 1 7
M  V30 4 1 2 3
M  V30 5 1 2 8
M  V30 6 2 3 5
M  V30 7 1 3 10
M  V30 8 1 4 5
M  V30 9 2 4 11
M  V30 10 1 6 9
M  V30 11 1 8 9
M  V30 12 2 10 12
M  V30 13 1 11 12
M  V30 END BOND
M  V30 END CTAB
M  END

> <INPUT>
C10H14N2

> <FOUND_BY>
MS Ready Formula

> <DTXCID_INDIVIDUAL_COMPONENT>
DTXCID9028128

> <FORMULA_INDIVIDUAL_COMPONENT>
C10H14N2

> <SMILES_INDIVIDUAL_COMPONENT>
CN1CCCC1C1=CN=CC=C1

> <MAPPED_DTXSID>
DTXSID1020930

> <PREFERRED_NAME_DTXSID>
Nicotine

> <CASRN_DTXSID>
54-11-5

> <FORMULA_MAPPED_DTXSID>
C10H14N2

> <SMILES_MAPPED_DTXSID>
CN1CCC[C@H]1C1=CN=CC=C1

> <MS_READY_SMILES>
CN1CCCC1C1=CN=CC=C1

> <INCHI_STRING_DTXCID>
InChI=1S/C10H14N2/c1-12-7-3-5-10(12)9-4-2-6-11-8-9/h2,4,6,8,10H,3,5,7H2,1H3

> <INCHIKEY_DTXCID>
SNICXCGAKADSCV-UHFFFAOYSA-N

> <MONOISOTOPIC_MASS_DTXCID>
162.115698459

> <EXPOCAST_MEDIAN_EXPOSURE_PREDICTION_MG/KG-BW/DAY>
7.08e-07

> <EXPOCAST>
1

> <NHANES>
0

> <DATA_SOURCES>
101

> <TOXVAL_DATA>
1

> <TOXCAST_PERCENT_ACTIVE>
2.42

> <TOXCAST_NUMBER_OF_ASSAYS/TOTAL>
14/578

> <NUMBER_OF_PUBMED_ARTICLES>
22837.0

> <PUBCHEM_DATA_SOURCES>
127

> <CPDAT_COUNT>
60

> <ATMOSPHERIC_HYDROXYLATION_RATE_(AOH)_CM3/MOLECULE*SEC_OPERA_PRED>
4.3164e-11

> <BIOCONCENTRATION_FACTOR_OPERA_PRED>
6.524

> <BIODEGRADATION_HALF_LIFE_DAYS_DAYS_OPERA_PRED>
3.36018

> <BOILING_POINT_DEGC_OPERA_PRED>
253.418

> <HENRYS_LAW_ATM-M3/MOLE_OPERA_PRED>
6.65993e-06

> <OPERA_KM_DAYS_OPERA_PRED>
5.93649

> <OCTANOL_AIR_PARTITION_COEFF_LOGKOA_OPERA_PRED>
5.80576

> <SOIL_ADSORPTION_COEFFICIENT_KOC_L/KG_OPERA_PRED>
110.746

> <OCTANOL_WATER_PARTITION_LOGP_OPERA_PRED>
1.17766

> <MELTING_POINT_DEGC_OPERA_PRED>
-34.4392

> <VAPOR_PRESSURE_MMHG_OPERA_PRED>
0.013088

> <WATER_SOLUBILITY_MOL/L_OPERA_PRED>
4.51047

> <TEST_BCF_TEST_PRED>
11.995

> <BOILING_POINT_DEGC_TEST_PRED>
244.899

> <DENSITY_G/CM^3_TEST_PRED>
1.016

> <FLASH_POINT_DEGC_TEST_PRED>
97.941

> <MELTING_POINT_DEGC_TEST_PRED>
30.758

> <SURFACE_TENSION_DYN/CM_TEST_PRED>
37.655

> <THERMAL_CONDUCTIVITY_MW/(M*K)_TEST_PRED>
143.221

> <VISCOSITY_CP_CP_TEST_PRED>
7.2778

> <VAPOR_PRESSURE_MMHG_TEST_PRED>
0.02208

> <WATER_SOLUBILITY_MOL/L_TEST_PRED>
0.0799834

> <AEGLVALUES>
0

> <ALGALTOX>
0

> <ARCHEMICALS>
0

> <ATSDRLST>
0

> <BISPHENOLS>
0

> <OEHHA>
1

> <CERAPP>
0

> <FUNNAMES>
0

> <KWRSJERPS>
0

> <EPACONS>
0

> <IRIS>
0

> <EPAHFR>
0

> <EUCOSMETICS>
0

> <FRENCHLIST>
0

> <HEROMAP>
0

> <ITNANTIBIOTIC>
0

> <KEMIMARKET>
1

> <MASSBANKREF>
1

> <MASSBANKEUSP>
0

> <NEMILIST>
1

> <NATADB>
0

> <NIOSHIDLH>
1

> <NIOSHICSC>
1

> <NIOSHNPG>
1

> <NIOSHSKIN>
1

> <NORMANCT15>
1

> <SFISHFLUORO>
0

> <NORMANPRI>
0

> <NORMANEWS>
0

> <PFASTRIER>
0

> <SWISSPHARMA>
0

> <PPRTVWEB>
0

> <STOCKHOLM>
0

> <STOFFIDENT>
1

> <SCDM>
0

> <EAWAGSURF>
0

> <SWISSPEST>
0

> <TOX21SL>
1

> <TOXCAST>
1

> <TOXCAST_E1K>
0

> <TOXCAST_PH1V2>
0

> <TOXCAST_PH2>
1

> <TOXCAST_PH3>
0

> <TOXCAST_PHASEI>
0

> <TOXCAST_PHASEII>
1

> <TOXCAST_PHASEIII>
1

> <TRIRELEASE>
0

> <TSCASURF>
0

> <UJIBADE>
0

> <ATHENSSUS>
0

> <UATHTARGETS>
1

$$$$
185782
  Mrv1611103081716072D          

  0  0  0     0  0            999 V3000
M  V30 BEGIN CTAB
M  V30 COUNTS 12 13 0 0 0
M  V30 BEGIN ATOM
M  V30 1 N -1.0703 -2.2636 0 0
M  V30 2 C 0.2634 -1.4936 0 0
M  V30 3 C 0.2634 0.0464 0 0
M  V30 4 C -1.0703 0.8164 0 0
M  V30 5 C -1.0703 2.3564 0 0
M  V30 6 C 0.2634 3.1264 0 0
M  V30 7 N 1.597 2.3564 0 0
M  V30 8 C 1.597 0.8164 0 0
M  V30 9 C 1.597 -2.2636 0 0
M  V30 10 C 1.597 -3.8036 0 0
M  V30 11 C 0.2634 -4.5736 0 0
M  V30 12 C -1.0703 -3.8036 0 0
M  V30 END ATOM
M  V30 BEGIN BOND
M  V30 1 1 1 2
M  V30 2 1 2 3
M  V30 3 2 3 4
M  V30 4 1 4 5
M  V30 5 2 5 6
M  V30 6 1 6 7
M  V30 7 2 7 8
M  V30 8 1 8 3
M  V30 9 1 2 9
M  V30 10 1 9 10
M  V30 11 1 10 11
M  V30 12 1 11 12
M  V30 13 1 12 1
M  V30 END BOND
M  V30 END CTAB
M  END

> <INPUT>
C10H14N2

> <FOUND_BY>
MS Ready Formula

> <DTXCID_INDIVIDUAL_COMPONENT>
DTXCID50202491

> <FORMULA_INDIVIDUAL_COMPONENT>
C10H14N2

> <SMILES_INDIVIDUAL_COMPONENT>
C1CCC(NC1)C1=CC=CN=C1

> <MAPPED_DTXSID>
DTXSID9041607

> <PREFERRED_NAME_DTXSID>
L-3-(2'-Piperidyl)pyridine

> <CASRN_DTXSID>
494-52-0

> <FORMULA_MAPPED_DTXSID>
C10H14N2

> <SMILES_MAPPED_DTXSID>
C1CC[C@H](NC1)C1=CC=CN=C1

> <MS_READY_SMILES>
C1CCC(NC1)C1=CC=CN=C1

> <INCHI_STRING_DTXCID>
InChI=1S/C10H14N2/c1-2-7-12-10(5-1)9-4-3-6-11-8-9/h3-4,6,8,10,12H,1-2,5,7H2

> <INCHIKEY_DTXCID>
MTXSIJUGVMTTMU-UHFFFAOYSA-N

> <MONOISOTOPIC_MASS_DTXCID>
162.115698459

> <EXPOCAST_MEDIAN_EXPOSURE_PREDICTION_MG/KG-BW/DAY>
5.73e-08

> <EXPOCAST>
1

> <NHANES>
0

> <DATA_SOURCES>
43

> <TOXVAL_DATA>
1

> <TOXCAST_PERCENT_ACTIVE>
0.0

> <TOXCAST_NUMBER_OF_ASSAYS/TOTAL>
0/113

> <NUMBER_OF_PUBMED_ARTICLES>
270.0

> <PUBCHEM_DATA_SOURCES>
50

> <CPDAT_COUNT>
6

> <ATMOSPHERIC_HYDROXYLATION_RATE_(AOH)_CM3/MOLECULE*SEC_OPERA_PRED>
4.36897e-11

> <BIOCONCENTRATION_FACTOR_OPERA_PRED>
8.93408

> <BIODEGRADATION_HALF_LIFE_DAYS_DAYS_OPERA_PRED>
2.77408

> <BOILING_POINT_DEGC_OPERA_PRED>
280.593

> <HENRYS_LAW_ATM-M3/MOLE_OPERA_PRED>
2.85646e-07

> <OPERA_KM_DAYS_OPERA_PRED>
0.501872

> <OCTANOL_AIR_PARTITION_COEFF_LOGKOA_OPERA_PRED>
8.36352

> <SOIL_ADSORPTION_COEFFICIENT_KOC_L/KG_OPERA_PRED>
145.09

> <OCTANOL_WATER_PARTITION_LOGP_OPERA_PRED>
0.909452

> <MELTING_POINT_DEGC_OPERA_PRED>
27.163

> <VAPOR_PRESSURE_MMHG_OPERA_PRED>
0.011755

> <WATER_SOLUBILITY_MOL/L_OPERA_PRED>
1.66388

> <TEST_BCF_TEST_PRED>
8.20352

> <BOILING_POINT_DEGC_TEST_PRED>
266.078

> <DENSITY_G/CM^3_TEST_PRED>
1.029

> <FLASH_POINT_DEGC_TEST_PRED>
111.226

> <MELTING_POINT_DEGC_TEST_PRED>
23.097

> <SURFACE_TENSION_DYN/CM_TEST_PRED>
38.231

> <THERMAL_CONDUCTIVITY_MW/(M*K)_TEST_PRED>
151.208

> <VISCOSITY_CP_CP_TEST_PRED>
12.7644

> <VAPOR_PRESSURE_MMHG_TEST_PRED>
0.00864968

> <WATER_SOLUBILITY_MOL/L_TEST_PRED>
0.055335

> <AEGLVALUES>
0

> <ALGALTOX>
0

> <ARCHEMICALS>
0

> <ATSDRLST>
0

> <BISPHENOLS>
0

> <OEHHA>
0

> <CERAPP>
0

> <FUNNAMES>
0

> <KWRSJERPS>
0

> <EPACONS>
0

> <IRIS>
0

> <EPAHFR>
0

> <EUCOSMETICS>
0

> <FRENCHLIST>
0

> <HEROMAP>
0

> <ITNANTIBIOTIC>
0

> <KEMIMARKET>
1

> <MASSBANKREF>
0

> <MASSBANKEUSP>
0

> <NEMILIST>
0

> <NATADB>
0

> <NIOSHIDLH>
0

> <NIOSHICSC>
0

> <NIOSHNPG>
0

> <NIOSHSKIN>
0

> <NORMANCT15>
0

> <SFISHFLUORO>
0

> <NORMANPRI>
0

> <NORMANEWS>
0

> <PFASTRIER>
0

> <SWISSPHARMA>
0

> <PPRTVWEB>
0

> <STOCKHOLM>
0

> <STOFFIDENT>
0

> <SCDM>
0

> <EAWAGSURF>
0

> <SWISSPEST>
0

> <TOX21SL>
1

> <TOXCAST>
1

> <TOXCAST_E1K>
0

> <TOXCAST_PH1V2>
0

> <TOXCAST_PH2>
0

> <TOXCAST_PH3>
1

> <TOXCAST_PHASEI>
0

> <TOXCAST_PHASEII>
0

> <TOXCAST_PHASEIII>
1

> <TRIRELEASE>
0

> <TSCASURF>
0

> <UJIBADE>
0

> <ATHENSSUS>
0

> <UATHTARGETS>
0

$$$$

  Mrv1533009301517252D          

  0  0  0     0  0            999 V3000
M  V30 BEGIN CTAB
M  V30 COUNTS 12 13 0 0 0
M  V30 BEGIN ATOM
M  V30 1 C 2.3066 -6.6665 0 0
M  V30 2 C 3.0799 -5.3332 0 0
M  V30 3 N 2.3066 -3.9999 0 0
M  V30 4 C 0.7667 -3.9999 0 0
M  V30 5 C 0 -5.3332 0 0
M  V30 6 N 0.7667 -6.6665 0 0
M  V30 7 C 3.0799 -2.6665 0 0
M  V30 8 C 4.6199 -2.6665 0 0
M  V30 9 C 5.3866 -1.3333 0 0
M  V30 10 C 4.6199 0 0 0
M  V30 11 C 3.0799 0 0 0
M  V30 12 C 2.3066 -1.3333 0 0
M  V30 END ATOM
M  V30 BEGIN BOND
M  V30 1 1 1 2
M  V30 2 1 1 6
M  V30 3 1 2 3
M  V30 4 1 3 4
M  V30 5 1 3 7
M  V30 6 1 4 5
M  V30 7 1 5 6
M  V30 8 2 7 8
M  V30 9 1 7 12
M  V30 10 1 8 9
M  V30 11 2 9 10
M  V30 12 1 10 11
M  V30 13 2 11 12
M  V30 END BOND
M  V30 END CTAB
M  END

> <INPUT>
C10H14N2

> <FOUND_BY>
MS Ready Formula

> <DTXCID_INDIVIDUAL_COMPONENT>
DTXCID9031644

> <FORMULA_INDIVIDUAL_COMPONENT>
C10H14N2

> <SMILES_INDIVIDUAL_COMPONENT>
C1CN(CCN1)C1=CC=CC=C1

> <MAPPED_DTXSID>
DTXSID8057855

> <PREFERRED_NAME_DTXSID>
Phenylpiperazine

> <CASRN_DTXSID>
92-54-6

> <FORMULA_MAPPED_DTXSID>
C10H14N2

> <SMILES_MAPPED_DTXSID>
C1CN(CCN1)C1=CC=CC=C1

> <MS_READY_SMILES>
C1CN(CCN1)C1=CC=CC=C1

> <INCHI_STRING_DTXCID>
InChI=1S/C10H14N2/c1-2-4-10(5-3-1)12-8-6-11-7-9-12/h1-5,11H,6-9H2

> <INCHIKEY_DTXCID>
YZTJYBJCZXZGCT-UHFFFAOYSA-N

> <MONOISOTOPIC_MASS_DTXCID>
162.115698459

> <EXPOCAST_MEDIAN_EXPOSURE_PREDICTION_MG/KG-BW/DAY>
-

> <EXPOCAST>
0

> <NHANES>
0

> <DATA_SOURCES>
37

> <TOXVAL_DATA>
1

> <TOXCAST_PERCENT_ACTIVE>
0.0

> <TOXCAST_NUMBER_OF_ASSAYS/TOTAL>
0/45

> <NUMBER_OF_PUBMED_ARTICLES>
100.0

> <PUBCHEM_DATA_SOURCES>
135

> <CPDAT_COUNT>
-

> <ATMOSPHERIC_HYDROXYLATION_RATE_(AOH)_CM3/MOLECULE*SEC_OPERA_PRED>
1.75521e-11

> <BIOCONCENTRATION_FACTOR_OPERA_PRED>
6.19709

> <BIODEGRADATION_HALF_LIFE_DAYS_DAYS_OPERA_PRED>
12.0774

> <BOILING_POINT_DEGC_OPERA_PRED>
288.087

> <HENRYS_LAW_ATM-M3/MOLE_OPERA_PRED>
2.60688e-07

> <OPERA_KM_DAYS_OPERA_PRED>
0.30067

> <OCTANOL_AIR_PARTITION_COEFF_LOGKOA_OPERA_PRED>
8.55338

> <SOIL_ADSORPTION_COEFFICIENT_KOC_L/KG_OPERA_PRED>
160.634

> <OCTANOL_WATER_PARTITION_LOGP_OPERA_PRED>
1.21176

> <MELTING_POINT_DEGC_OPERA_PRED>
45.8919

> <VAPOR_PRESSURE_MMHG_OPERA_PRED>
0.00666262

> <WATER_SOLUBILITY_MOL/L_OPERA_PRED>
0.145931

> <TEST_BCF_TEST_PRED>
8.24138

> <BOILING_POINT_DEGC_TEST_PRED>
269.774

> <DENSITY_G/CM^3_TEST_PRED>
1.025

> <FLASH_POINT_DEGC_TEST_PRED>
118.779

> <MELTING_POINT_DEGC_TEST_PRED>
57.971

> <SURFACE_TENSION_DYN/CM_TEST_PRED>
37.464

> <THERMAL_CONDUCTIVITY_MW/(M*K)_TEST_PRED>
161.939

> <VISCOSITY_CP_CP_TEST_PRED>
7.16143

> <VAPOR_PRESSURE_MMHG_TEST_PRED>
0.00469894

> <WATER_SOLUBILITY_MOL/L_TEST_PRED>
0.0399025

> <AEGLVALUES>
0

> <ALGALTOX>
0

> <ARCHEMICALS>
0

> <ATSDRLST>
0

> <BISPHENOLS>
0

> <OEHHA>
0

> <CERAPP>
1

> <FUNNAMES>
0

> <KWRSJERPS>
0

> <EPACONS>
0

> <IRIS>
0

> <EPAHFR>
0

> <EUCOSMETICS>
0

> <FRENCHLIST>
0

> <HEROMAP>
0

> <ITNANTIBIOTIC>
0

> <KEMIMARKET>
1

> <MASSBANKREF>
0

> <MASSBANKEUSP>
0

> <NEMILIST>
0

> <NATADB>
0

> <NIOSHIDLH>
0

> <NIOSHICSC>
0

> <NIOSHNPG>
0

> <NIOSHSKIN>
0

> <NORMANCT15>
0

> <SFISHFLUORO>
0

> <NORMANPRI>
0

> <NORMANEWS>
0

> <PFASTRIER>
0

> <SWISSPHARMA>
0

> <PPRTVWEB>
0

> <STOCKHOLM>
0

> <STOFFIDENT>
1

> <SCDM>
0

> <EAWAGSURF>
0

> <SWISSPEST>
0

> <TOX21SL>
1

> <TOXCAST>
0

> <TOXCAST_E1K>
0

> <TOXCAST_PH1V2>
0

> <TOXCAST_PH2>
0

> <TOXCAST_PH3>
0

> <TOXCAST_PHASEI>
0

> <TOXCAST_PHASEII>
0

> <TOXCAST_PHASEIII>
0

> <TRIRELEASE>
0

> <TSCASURF>
0

> <UJIBADE>
0

> <ATHENSSUS>
0

> <UATHTARGETS>
0

$$$$

  Mrv1533009301517222D          

  0  0  0     0  0            999 V3000
M  V30 BEGIN CTAB
M  V30 COUNTS 12 12 0 0 0
M  V30 BEGIN ATOM
M  V30 1 C 2.6694 -2.3147 0 0
M  V30 2 N 1.3347 -1.54 0 0
M  V30 3 N 4.0041 -1.54 0 0
M  V30 4 C 7.9987 -2.3147 0 0
M  V30 5 C 7.9987 -3.8547 0 0
M  V30 6 C 6.6641 -4.6201 0 0
M  V30 7 C 5.3294 -3.8547 0 0
M  V30 8 C 5.3294 -2.3147 0 0
M  V30 9 C 6.6641 -1.54 0 0
M  V30 10 C 6.6641 0 0 0
M  V30 11 C 9.3335 -4.6201 0 0
M  V30 12 C 0 -2.3147 0 0
M  V30 END ATOM
M  V30 BEGIN BOND
M  V30 1 2 1 3 CFG=2
M  V30 2 1 1 2
M  V30 3 1 2 12
M  V30 4 1 3 8
M  V30 5 2 4 9
M  V30 6 1 4 5
M  V30 7 2 5 6
M  V30 8 1 5 11
M  V30 9 1 6 7
M  V30 10 2 7 8
M  V30 11 1 8 9
M  V30 12 1 9 10
M  V30 END BOND
M  V30 END CTAB
M  END

> <INPUT>
C10H14N2

> <FOUND_BY>
MS Ready Formula

> <DTXCID_INDIVIDUAL_COMPONENT>
DTXCID9017696

> <FORMULA_INDIVIDUAL_COMPONENT>
C10H14N2

> <SMILES_INDIVIDUAL_COMPONENT>
CNC=NC1=CC=C(C)C=C1C

> <MAPPED_DTXSID>
DTXSID1037696

> <PREFERRED_NAME_DTXSID>
N'-(2,4-Dimethylphenyl)-N-methylformamidine

> <CASRN_DTXSID>
33089-74-6

> <FORMULA_MAPPED_DTXSID>
C10H14N2

> <SMILES_MAPPED_DTXSID>
CNC=NC1=CC=C(C)C=C1C

> <MS_READY_SMILES>
CNC=NC1=CC=C(C)C=C1C

> <INCHI_STRING_DTXCID>
InChI=1S/C10H14N2/c1-8-4-5-10(9(2)6-8)12-7-11-3/h4-7H,1-3H3,(H,11,12)

> <INCHIKEY_DTXCID>
JIIOLEGNERQDIP-UHFFFAOYSA-N

> <MONOISOTOPIC_MASS_DTXCID>
162.115698459

> <EXPOCAST_MEDIAN_EXPOSURE_PREDICTION_MG/KG-BW/DAY>
5.43e-08

> <EXPOCAST>
1

> <NHANES>
0

> <DATA_SOURCES>
35

> <TOXVAL_DATA>
1

> <TOXCAST_PERCENT_ACTIVE>
0.0

> <TOXCAST_NUMBER_OF_ASSAYS/TOTAL>
0/113

> <NUMBER_OF_PUBMED_ARTICLES>
13.0

> <PUBCHEM_DATA_SOURCES>
39

> <CPDAT_COUNT>
6

> <ATMOSPHERIC_HYDROXYLATION_RATE_(AOH)_CM3/MOLECULE*SEC_OPERA_PRED>
2.21305e-11

> <BIOCONCENTRATION_FACTOR_OPERA_PRED>
3.98838

> <BIODEGRADATION_HALF_LIFE_DAYS_DAYS_OPERA_PRED>
3.34267

> <BOILING_POINT_DEGC_OPERA_PRED>
272.296

> <HENRYS_LAW_ATM-M3/MOLE_OPERA_PRED>
2.66769e-07

> <OPERA_KM_DAYS_OPERA_PRED>
0.322554

> <OCTANOL_AIR_PARTITION_COEFF_LOGKOA_OPERA_PRED>
6.91168

> <SOIL_ADSORPTION_COEFFICIENT_KOC_L/KG_OPERA_PRED>
121.413

> <OCTANOL_WATER_PARTITION_LOGP_OPERA_PRED>
2.38968

> <MELTING_POINT_DEGC_OPERA_PRED>
66.4124

> <VAPOR_PRESSURE_MMHG_OPERA_PRED>
0.0124813

> <WATER_SOLUBILITY_MOL/L_OPERA_PRED>
0.00263901

> <TEST_BCF_TEST_PRED>
9.48418

> <BOILING_POINT_DEGC_TEST_PRED>
-

> <DENSITY_G/CM^3_TEST_PRED>
1.144

> <FLASH_POINT_DEGC_TEST_PRED>
121.18

> <MELTING_POINT_DEGC_TEST_PRED>
123.727

> <SURFACE_TENSION_DYN/CM_TEST_PRED>
-

> <THERMAL_CONDUCTIVITY_MW/(M*K)_TEST_PRED>
-

> <VISCOSITY_CP_CP_TEST_PRED>
-

> <VAPOR_PRESSURE_MMHG_TEST_PRED>
-

> <WATER_SOLUBILITY_MOL/L_TEST_PRED>
0.00430527

> <AEGLVALUES>
0

> <ALGALTOX>
0

> <ARCHEMICALS>
0

> <ATSDRLST>
0

> <BISPHENOLS>
0

> <OEHHA>
0

> <CERAPP>
1

> <FUNNAMES>
0

> <KWRSJERPS>
0

> <EPACONS>
0

> <IRIS>
0

> <EPAHFR>
0

> <EUCOSMETICS>
0

> <FRENCHLIST>
0

> <HEROMAP>
0

> <ITNANTIBIOTIC>
0

> <KEMIMARKET>
0

> <MASSBANKREF>
1

> <MASSBANKEUSP>
0

> <NEMILIST>
0

> <NATADB>
0

> <NIOSHIDLH>
0

> <NIOSHICSC>
0

> <NIOSHNPG>
0

> <NIOSHSKIN>
0

> <NORMANCT15>
0

> <SFISHFLUORO>
0

> <NORMANPRI>
0

> <NORMANEWS>
0

> <PFASTRIER>
0

> <SWISSPHARMA>
0

> <PPRTVWEB>
0

> <STOCKHOLM>
0

> <STOFFIDENT>
1

> <SCDM>
0

> <EAWAGSURF>
0

> <SWISSPEST>
0

> <TOX21SL>
1

> <TOXCAST>
1

> <TOXCAST_E1K>
0

> <TOXCAST_PH1V2>
0

> <TOXCAST_PH2>
0

> <TOXCAST_PH3>
1

> <TOXCAST_PHASEI>
0

> <TOXCAST_PHASEII>
0

> <TOXCAST_PHASEIII>
1

> <TRIRELEASE>
0

> <TSCASURF>
0

> <UJIBADE>
0

> <ATHENSSUS>
0

> <UATHTARGETS>
1

$$$$

  Mrv1611108211713492D          

  0  0  0     0  0            999 V3000
M  V30 BEGIN CTAB
M  V30 COUNTS 12 13 0 0 0
M  V30 BEGIN ATOM
M  V30 1 N 5.3343 -2.0521 0 0
M  V30 2 C 4.0583 -2.9401 0 0
M  V30 3 C 2.6507 -2.3152 0 0
M  V30 4 N 1.3352 0 0 0
M  V30 5 C 2.6507 -0.7762 0 0
M  V30 6 C 6.5774 -2.927 0 0
M  V30 7 C 5.3343 -0.4801 0 0
M  V30 8 C 4.5581 -4.4069 0 0
M  V30 9 C 6.1301 -4.4069 0 0
M  V30 10 C 1.3352 -3.0717 0 0
M  V30 11 C 0 -0.7565 0 0
M  V30 12 C 0 -2.3152 0 0
M  V30 END ATOM
M  V30 BEGIN BOND
M  V30 1 1 1 2
M  V30 2 1 1 6
M  V30 3 1 1 7
M  V30 4 1 2 3
M  V30 5 1 2 8
M  V30 6 2 3 5
M  V30 7 1 3 10
M  V30 8 1 4 5
M  V30 9 2 4 11
M  V30 10 1 6 9
M  V30 11 1 8 9
M  V30 12 2 10 12
M  V30 13 1 11 12
M  V30 END BOND
M  V30 END CTAB
M  END

> <INPUT>
C10H14N2

> <FOUND_BY>
MS Ready Formula

> <DTXCID_INDIVIDUAL_COMPONENT>
DTXCID9028128

> <FORMULA_INDIVIDUAL_COMPONENT>
C10H14N2

> <SMILES_INDIVIDUAL_COMPONENT>
CN1CCCC1C1=CN=CC=C1

> <MAPPED_DTXSID>
DTXSID8021725

> <PREFERRED_NAME_DTXSID>
Nicotine sulfate

> <CASRN_DTXSID>
65-30-5

> <FORMULA_MAPPED_DTXSID>
C20H30N4O4S

> <SMILES_MAPPED_DTXSID>
OS(O)(=O)=O.CN1CCC[C@H]1C1=CN=CC=C1.CN1CCC[C@H]1C1=CN=CC=C1

> <MS_READY_SMILES>
CN1CCCC1C1=CN=CC=C1

> <INCHI_STRING_DTXCID>
InChI=1S/C10H14N2/c1-12-7-3-5-10(12)9-4-2-6-11-8-9/h2,4,6,8,10H,3,5,7H2,1H3

> <INCHIKEY_DTXCID>
SNICXCGAKADSCV-UHFFFAOYSA-N

> <MONOISOTOPIC_MASS_DTXCID>
162.115698459

> <EXPOCAST_MEDIAN_EXPOSURE_PREDICTION_MG/KG-BW/DAY>
1.61e-07

> <EXPOCAST>
1

> <NHANES>
0

> <DATA_SOURCES>
34

> <TOXVAL_DATA>
1

> <TOXCAST_PERCENT_ACTIVE>
2.9

> <TOXCAST_NUMBER_OF_ASSAYS/TOTAL>
8/276

> <NUMBER_OF_PUBMED_ARTICLES>
-

> <PUBCHEM_DATA_SOURCES>
16

> <CPDAT_COUNT>
4

> <ATMOSPHERIC_HYDROXYLATION_RATE_(AOH)_CM3/MOLECULE*SEC_OPERA_PRED>
-

> <BIOCONCENTRATION_FACTOR_OPERA_PRED>
-

> <BIODEGRADATION_HALF_LIFE_DAYS_DAYS_OPERA_PRED>
-

> <BOILING_POINT_DEGC_OPERA_PRED>
-

> <HENRYS_LAW_ATM-M3/MOLE_OPERA_PRED>
-

> <OPERA_KM_DAYS_OPERA_PRED>
-

> <OCTANOL_AIR_PARTITION_COEFF_LOGKOA_OPERA_PRED>
-

> <SOIL_ADSORPTION_COEFFICIENT_KOC_L/KG_OPERA_PRED>
-

> <OCTANOL_WATER_PARTITION_LOGP_OPERA_PRED>
-

> <MELTING_POINT_DEGC_OPERA_PRED>
-

> <VAPOR_PRESSURE_MMHG_OPERA_PRED>
-

> <WATER_SOLUBILITY_MOL/L_OPERA_PRED>
-

> <TEST_BCF_TEST_PRED>
-

> <BOILING_POINT_DEGC_TEST_PRED>
-

> <DENSITY_G/CM^3_TEST_PRED>
-

> <FLASH_POINT_DEGC_TEST_PRED>
-

> <MELTING_POINT_DEGC_TEST_PRED>
-

> <SURFACE_TENSION_DYN/CM_TEST_PRED>
-

> <THERMAL_CONDUCTIVITY_MW/(M*K)_TEST_PRED>
-

> <VISCOSITY_CP_CP_TEST_PRED>
-

> <VAPOR_PRESSURE_MMHG_TEST_PRED>
-

> <WATER_SOLUBILITY_MOL/L_TEST_PRED>
-

> <AEGLVALUES>
0

> <ALGALTOX>
0

> <ARCHEMICALS>
0

> <ATSDRLST>
0

> <BISPHENOLS>
0

> <OEHHA>
0

> <CERAPP>
0

> <FUNNAMES>
0

> <KWRSJERPS>
0

> <EPACONS>
0

> <IRIS>
0

> <EPAHFR>
0

> <EUCOSMETICS>
0

> <FRENCHLIST>
0

> <HEROMAP>
0

> <ITNANTIBIOTIC>
0

> <KEMIMARKET>
0

> <MASSBANKREF>
0

> <MASSBANKEUSP>
0

> <NEMILIST>
0

> <NATADB>
0

> <NIOSHIDLH>
0

> <NIOSHICSC>
1

> <NIOSHNPG>
0

> <NIOSHSKIN>
0

> <NORMANCT15>
0

> <SFISHFLUORO>
0

> <NORMANPRI>
0

> <NORMANEWS>
0

> <PFASTRIER>
0

> <SWISSPHARMA>
0

> <PPRTVWEB>
0

> <STOCKHOLM>
0

> <STOFFIDENT>
0

> <SCDM>
0

> <EAWAGSURF>
0

> <SWISSPEST>
0

> <TOX21SL>
1

> <TOXCAST>
1

> <TOXCAST_E1K>
0

> <TOXCAST_PH1V2>
0

> <TOXCAST_PH2>
0

> <TOXCAST_PH3>
1

> <TOXCAST_PHASEI>
0

> <TOXCAST_PHASEII>
0

> <TOXCAST_PHASEIII>
1

> <TRIRELEASE>
0

> <TSCASURF>
0

> <UJIBADE>
0

> <ATHENSSUS>
0

> <UATHTARGETS>
0

$$$$

  Mrv1611108211713492D          

  0  0  0     0  0            999 V3000
M  V30 BEGIN CTAB
M  V30 COUNTS 12 13 0 0 0
M  V30 BEGIN ATOM
M  V30 1 N 5.3343 -2.0521 0 0
M  V30 2 C 4.0583 -2.9401 0 0
M  V30 3 C 2.6507 -2.3152 0 0
M  V30 4 N 1.3352 0 0 0
M  V30 5 C 2.6507 -0.7762 0 0
M  V30 6 C 6.5774 -2.927 0 0
M  V30 7 C 5.3343 -0.4801 0 0
M  V30 8 C 4.5581 -4.4069 0 0
M  V30 9 C 6.1301 -4.4069 0 0
M  V30 10 C 1.3352 -3.0717 0 0
M  V30 11 C 0 -0.7565 0 0
M  V30 12 C 0 -2.3152 0 0
M  V30 END ATOM
M  V30 BEGIN BOND
M  V30 1 1 1 2
M  V30 2 1 1 6
M  V30 3 1 1 7
M  V30 4 1 2 3
M  V30 5 1 2 8
M  V30 6 2 3 5
M  V30 7 1 3 10
M  V30 8 1 4 5
M  V30 9 2 4 11
M  V30 10 1 6 9
M  V30 11 1 8 9
M  V30 12 2 10 12
M  V30 13 1 11 12
M  V30 END BOND
M  V30 END CTAB
M  END

> <INPUT>
C10H14N2

> <FOUND_BY>
MS Ready Formula

> <DTXCID_INDIVIDUAL_COMPONENT>
DTXCID9028128

> <FORMULA_INDIVIDUAL_COMPONENT>
C10H14N2

> <SMILES_INDIVIDUAL_COMPONENT>
CN1CCCC1C1=CN=CC=C1

> <MAPPED_DTXSID>
DTXSID0046351

> <PREFERRED_NAME_DTXSID>
D-Nicotine

> <CASRN_DTXSID>
25162-00-9

> <FORMULA_MAPPED_DTXSID>
C10H14N2

> <SMILES_MAPPED_DTXSID>
CN1CCC[C@@H]1C1=CN=CC=C1

> <MS_READY_SMILES>
CN1CCCC1C1=CN=CC=C1

> <INCHI_STRING_DTXCID>
InChI=1S/C10H14N2/c1-12-7-3-5-10(12)9-4-2-6-11-8-9/h2,4,6,8,10H,3,5,7H2,1H3

> <INCHIKEY_DTXCID>
SNICXCGAKADSCV-UHFFFAOYSA-N

> <MONOISOTOPIC_MASS_DTXCID>
162.115698459

> <EXPOCAST_MEDIAN_EXPOSURE_PREDICTION_MG/KG-BW/DAY>
1.19e-07

> <EXPOCAST>
1

> <NHANES>
0

> <DATA_SOURCES>
22

> <TOXVAL_DATA>
0

> <TOXCAST_PERCENT_ACTIVE>
0.0

> <TOXCAST_NUMBER_OF_ASSAYS/TOTAL>
0/109

> <NUMBER_OF_PUBMED_ARTICLES>
1.0

> <PUBCHEM_DATA_SOURCES>
46

> <CPDAT_COUNT>
-

> <ATMOSPHERIC_HYDROXYLATION_RATE_(AOH)_CM3/MOLECULE*SEC_OPERA_PRED>
4.3164e-11

> <BIOCONCENTRATION_FACTOR_OPERA_PRED>
6.524

> <BIODEGRADATION_HALF_LIFE_DAYS_DAYS_OPERA_PRED>
3.36018

> <BOILING_POINT_DEGC_OPERA_PRED>
253.418

> <HENRYS_LAW_ATM-M3/MOLE_OPERA_PRED>
6.65993e-06

> <OPERA_KM_DAYS_OPERA_PRED>
5.93649

> <OCTANOL_AIR_PARTITION_COEFF_LOGKOA_OPERA_PRED>
5.80576

> <SOIL_ADSORPTION_COEFFICIENT_KOC_L/KG_OPERA_PRED>
110.746

> <OCTANOL_WATER_PARTITION_LOGP_OPERA_PRED>
1.17766

> <MELTING_POINT_DEGC_OPERA_PRED>
-34.4392

> <VAPOR_PRESSURE_MMHG_OPERA_PRED>
0.013088

> <WATER_SOLUBILITY_MOL/L_OPERA_PRED>
4.51047

> <TEST_BCF_TEST_PRED>
11.995

> <BOILING_POINT_DEGC_TEST_PRED>
244.899

> <DENSITY_G/CM^3_TEST_PRED>
1.03

> <FLASH_POINT_DEGC_TEST_PRED>
95.541

> <MELTING_POINT_DEGC_TEST_PRED>
18.147

> <SURFACE_TENSION_DYN/CM_TEST_PRED>
36.302

> <THERMAL_CONDUCTIVITY_MW/(M*K)_TEST_PRED>
143.221

> <VISCOSITY_CP_CP_TEST_PRED>
7.2778

> <VAPOR_PRESSURE_MMHG_TEST_PRED>
0.00436516

> <WATER_SOLUBILITY_MOL/L_TEST_PRED>
0.0799834

> <AEGLVALUES>
0

> <ALGALTOX>
0

> <ARCHEMICALS>
0

> <ATSDRLST>
0

> <BISPHENOLS>
0

> <OEHHA>
0

> <CERAPP>
0

> <FUNNAMES>
0

> <KWRSJERPS>
0

> <EPACONS>
0

> <IRIS>
0

> <EPAHFR>
0

> <EUCOSMETICS>
0

> <FRENCHLIST>
0

> <HEROMAP>
0

> <ITNANTIBIOTIC>
0

> <KEMIMARKET>
0

> <MASSBANKREF>
0

> <MASSBANKEUSP>
0

> <NEMILIST>
0

> <NATADB>
0

> <NIOSHIDLH>
0

> <NIOSHICSC>
0

> <NIOSHNPG>
0

> <NIOSHSKIN>
0

> <NORMANCT15>
0

> <SFISHFLUORO>
0

> <NORMANPRI>
0

> <NORMANEWS>
0

> <PFASTRIER>
0

> <SWISSPHARMA>
0

> <PPRTVWEB>
0

> <STOCKHOLM>
0

> <STOFFIDENT>
0

> <SCDM>
0

> <EAWAGSURF>
0

> <SWISSPEST>
0

> <TOX21SL>
1

> <TOXCAST>
0

> <TOXCAST_E1K>
0

> <TOXCAST_PH1V2>
0

> <TOXCAST_PH2>
0

> <TOXCAST_PH3>
0

> <TOXCAST_PHASEI>
0

> <TOXCAST_PHASEII>
0

> <TOXCAST_PHASEIII>
0

> <TRIRELEASE>
0

> <TSCASURF>
0

> <UJIBADE>
0

> <ATHENSSUS>
0

> <UATHTARGETS>
0

$$$$

  Mrv1611108211713492D          

  0  0  0     0  0            999 V3000
M  V30 BEGIN CTAB
M  V30 COUNTS 12 13 0 0 0
M  V30 BEGIN ATOM
M  V30 1 N 5.3343 -2.0521 0 0
M  V30 2 C 4.0583 -2.9401 0 0
M  V30 3 C 2.6507 -2.3152 0 0
M  V30 4 N 1.3352 0 0 0
M  V30 5 C 2.6507 -0.7762 0 0
M  V30 6 C 6.5774 -2.927 0 0
M  V30 7 C 5.3343 -0.4801 0 0
M  V30 8 C 4.5581 -4.4069 0 0
M  V30 9 C 6.1301 -4.4069 0 0
M  V30 10 C 1.3352 -3.0717 0 0
M  V30 11 C 0 -0.7565 0 0
M  V30 12 C 0 -2.3152 0 0
M  V30 END ATOM
M  V30 BEGIN BOND
M  V30 1 1 1 2
M  V30 2 1 1 6
M  V30 3 1 1 7
M  V30 4 1 2 3
M  V30 5 1 2 8
M  V30 6 2 3 5
M  V30 7 1 3 10
M  V30 8 1 4 5
M  V30 9 2 4 11
M  V30 10 1 6 9
M  V30 11 1 8 9
M  V30 12 2 10 12
M  V30 13 1 11 12
M  V30 END BOND
M  V30 END CTAB
M  END

> <INPUT>
C10H14N2

> <FOUND_BY>
MS Ready Formula

> <DTXCID_INDIVIDUAL_COMPONENT>
DTXCID9028128

> <FORMULA_INDIVIDUAL_COMPONENT>
C10H14N2

> <SMILES_INDIVIDUAL_COMPONENT>
CN1CCCC1C1=CN=CC=C1

> <MAPPED_DTXSID>
DTXSID3048154

> <PREFERRED_NAME_DTXSID>
DL-Nicotine

> <CASRN_DTXSID>
22083-74-5

> <FORMULA_MAPPED_DTXSID>
C10H14N2

> <SMILES_MAPPED_DTXSID>
CN1CCCC1C1=CN=CC=C1

> <MS_READY_SMILES>
CN1CCCC1C1=CN=CC=C1

> <INCHI_STRING_DTXCID>
InChI=1S/C10H14N2/c1-12-7-3-5-10(12)9-4-2-6-11-8-9/h2,4,6,8,10H,3,5,7H2,1H3

> <INCHIKEY_DTXCID>
SNICXCGAKADSCV-UHFFFAOYSA-N

> <MONOISOTOPIC_MASS_DTXCID>
162.115698459

> <EXPOCAST_MEDIAN_EXPOSURE_PREDICTION_MG/KG-BW/DAY>
-

> <EXPOCAST>
0

> <NHANES>
0

> <DATA_SOURCES>
19

> <TOXVAL_DATA>
1

> <TOXCAST_PERCENT_ACTIVE>
-

> <TOXCAST_NUMBER_OF_ASSAYS/TOTAL>
-

> <NUMBER_OF_PUBMED_ARTICLES>
-

> <PUBCHEM_DATA_SOURCES>
-

> <CPDAT_COUNT>
-

> <ATMOSPHERIC_HYDROXYLATION_RATE_(AOH)_CM3/MOLECULE*SEC_OPERA_PRED>
4.3164e-11

> <BIOCONCENTRATION_FACTOR_OPERA_PRED>
6.524

> <BIODEGRADATION_HALF_LIFE_DAYS_DAYS_OPERA_PRED>
3.36018

> <BOILING_POINT_DEGC_OPERA_PRED>
253.418

> <HENRYS_LAW_ATM-M3/MOLE_OPERA_PRED>
6.65993e-06

> <OPERA_KM_DAYS_OPERA_PRED>
5.93649

> <OCTANOL_AIR_PARTITION_COEFF_LOGKOA_OPERA_PRED>
5.80576

> <SOIL_ADSORPTION_COEFFICIENT_KOC_L/KG_OPERA_PRED>
110.746

> <OCTANOL_WATER_PARTITION_LOGP_OPERA_PRED>
1.17766

> <MELTING_POINT_DEGC_OPERA_PRED>
-34.4392

> <VAPOR_PRESSURE_MMHG_OPERA_PRED>
0.013088

> <WATER_SOLUBILITY_MOL/L_OPERA_PRED>
4.51047

> <TEST_BCF_TEST_PRED>
11.995

> <BOILING_POINT_DEGC_TEST_PRED>
244.899

> <DENSITY_G/CM^3_TEST_PRED>
1.03

> <FLASH_POINT_DEGC_TEST_PRED>
95.541

> <MELTING_POINT_DEGC_TEST_PRED>
18.147

> <SURFACE_TENSION_DYN/CM_TEST_PRED>
36.302

> <THERMAL_CONDUCTIVITY_MW/(M*K)_TEST_PRED>
143.221

> <VISCOSITY_CP_CP_TEST_PRED>
7.2778

> <VAPOR_PRESSURE_MMHG_TEST_PRED>
0.00436516

> <WATER_SOLUBILITY_MOL/L_TEST_PRED>
0.0799834

> <AEGLVALUES>
0

> <ALGALTOX>
0

> <ARCHEMICALS>
0

> <ATSDRLST>
0

> <BISPHENOLS>
0

> <OEHHA>
0

> <CERAPP>
1

> <FUNNAMES>
0

> <KWRSJERPS>
0

> <EPACONS>
0

> <IRIS>
0

> <EPAHFR>
0

> <EUCOSMETICS>
0

> <FRENCHLIST>
0

> <HEROMAP>
0

> <ITNANTIBIOTIC>
0

> <KEMIMARKET>
0

> <MASSBANKREF>
0

> <MASSBANKEUSP>
0

> <NEMILIST>
0

> <NATADB>
0

> <NIOSHIDLH>
0

> <NIOSHICSC>
0

> <NIOSHNPG>
0

> <NIOSHSKIN>
0

> <NORMANCT15>
1

> <SFISHFLUORO>
0

> <NORMANPRI>
0

> <NORMANEWS>
0

> <PFASTRIER>
0

> <SWISSPHARMA>
1

> <PPRTVWEB>
0

> <STOCKHOLM>
0

> <STOFFIDENT>
0

> <SCDM>
0

> <EAWAGSURF>
0

> <SWISSPEST>
0

> <TOX21SL>
0

> <TOXCAST>
0

> <TOXCAST_E1K>
0

> <TOXCAST_PH1V2>
0

> <TOXCAST_PH2>
0

> <TOXCAST_PH3>
0

> <TOXCAST_PHASEI>
0

> <TOXCAST_PHASEII>
0

> <TOXCAST_PHASEIII>
0

> <TRIRELEASE>
0

> <TSCASURF>
0

> <UJIBADE>
1

> <ATHENSSUS>
1

> <UATHTARGETS>
0

$$$$

  Mrv1533009301517222D          

  0  0  0     0  0            999 V3000
M  V30 BEGIN CTAB
M  V30 COUNTS 12 12 0 0 0
M  V30 BEGIN ATOM
M  V30 1 C 2.6694 -2.3147 0 0
M  V30 2 N 1.3347 -1.54 0 0
M  V30 3 N 4.0041 -1.54 0 0
M  V30 4 C 7.9987 -2.3147 0 0
M  V30 5 C 7.9987 -3.8547 0 0
M  V30 6 C 6.6641 -4.6201 0 0
M  V30 7 C 5.3294 -3.8547 0 0
M  V30 8 C 5.3294 -2.3147 0 0
M  V30 9 C 6.6641 -1.54 0 0
M  V30 10 C 6.6641 0 0 0
M  V30 11 C 9.3335 -4.6201 0 0
M  V30 12 C 0 -2.3147 0 0
M  V30 END ATOM
M  V30 BEGIN BOND
M  V30 1 2 1 3 CFG=2
M  V30 2 1 1 2
M  V30 3 1 2 12
M  V30 4 1 3 8
M  V30 5 2 4 9
M  V30 6 1 4 5
M  V30 7 2 5 6
M  V30 8 1 5 11
M  V30 9 1 6 7
M  V30 10 2 7 8
M  V30 11 1 8 9
M  V30 12 1 9 10
M  V30 END BOND
M  V30 END CTAB
M  END

> <INPUT>
C10H14N2

> <FOUND_BY>
MS Ready Formula

> <DTXCID_INDIVIDUAL_COMPONENT>
DTXCID9017696

> <FORMULA_INDIVIDUAL_COMPONENT>
C10H14N2

> <SMILES_INDIVIDUAL_COMPONENT>
CNC=NC1=CC=C(C)C=C1C

> <MAPPED_DTXSID>
DTXSID10199510

> <PREFERRED_NAME_DTXSID>
Semiamitraz chloride

> <CASRN_DTXSID>
51550-40-4

> <FORMULA_MAPPED_DTXSID>
C10H15ClN2

> <SMILES_MAPPED_DTXSID>
Cl.CNC=NC1=C(C)C=C(C)C=C1

> <MS_READY_SMILES>
CNC=NC1=CC=C(C)C=C1C

> <INCHI_STRING_DTXCID>
InChI=1S/C10H14N2/c1-8-4-5-10(9(2)6-8)12-7-11-3/h4-7H,1-3H3,(H,11,12)

> <INCHIKEY_DTXCID>
JIIOLEGNERQDIP-UHFFFAOYSA-N

> <MONOISOTOPIC_MASS_DTXCID>
162.115698459

> <EXPOCAST_MEDIAN_EXPOSURE_PREDICTION_MG/KG-BW/DAY>
-

> <EXPOCAST>
0

> <NHANES>
0

> <DATA_SOURCES>
13

> <TOXVAL_DATA>
1

> <TOXCAST_PERCENT_ACTIVE>
-

> <TOXCAST_NUMBER_OF_ASSAYS/TOTAL>
-

> <NUMBER_OF_PUBMED_ARTICLES>
13.0

> <PUBCHEM_DATA_SOURCES>
18

> <CPDAT_COUNT>
4

> <ATMOSPHERIC_HYDROXYLATION_RATE_(AOH)_CM3/MOLECULE*SEC_OPERA_PRED>
2.21305e-11

> <BIOCONCENTRATION_FACTOR_OPERA_PRED>
3.98838

> <BIODEGRADATION_HALF_LIFE_DAYS_DAYS_OPERA_PRED>
3.34267

> <BOILING_POINT_DEGC_OPERA_PRED>
272.296

> <HENRYS_LAW_ATM-M3/MOLE_OPERA_PRED>
2.66769e-07

> <OPERA_KM_DAYS_OPERA_PRED>
0.322554

> <OCTANOL_AIR_PARTITION_COEFF_LOGKOA_OPERA_PRED>
6.91168

> <SOIL_ADSORPTION_COEFFICIENT_KOC_L/KG_OPERA_PRED>
121.413

> <OCTANOL_WATER_PARTITION_LOGP_OPERA_PRED>
2.38968

> <MELTING_POINT_DEGC_OPERA_PRED>
159.286

> <VAPOR_PRESSURE_MMHG_OPERA_PRED>
0.0124813

> <WATER_SOLUBILITY_MOL/L_OPERA_PRED>
0.00263901

> <TEST_BCF_TEST_PRED>
9.48418

> <BOILING_POINT_DEGC_TEST_PRED>
-

> <DENSITY_G/CM^3_TEST_PRED>
1.144

> <FLASH_POINT_DEGC_TEST_PRED>
121.18

> <MELTING_POINT_DEGC_TEST_PRED>
123.727

> <SURFACE_TENSION_DYN/CM_TEST_PRED>
-

> <THERMAL_CONDUCTIVITY_MW/(M*K)_TEST_PRED>
-

> <VISCOSITY_CP_CP_TEST_PRED>
-

> <VAPOR_PRESSURE_MMHG_TEST_PRED>
-

> <WATER_SOLUBILITY_MOL/L_TEST_PRED>
0.00430527

> <AEGLVALUES>
0

> <ALGALTOX>
0

> <ARCHEMICALS>
0

> <ATSDRLST>
0

> <BISPHENOLS>
0

> <OEHHA>
0

> <CERAPP>
0

> <FUNNAMES>
0

> <KWRSJERPS>
0

> <EPACONS>
0

> <IRIS>
0

> <EPAHFR>
0

> <EUCOSMETICS>
0

> <FRENCHLIST>
0

> <HEROMAP>
0

> <ITNANTIBIOTIC>
0

> <KEMIMARKET>
1

> <MASSBANKREF>
0

> <MASSBANKEUSP>
0

> <NEMILIST>
0

> <NATADB>
0

> <NIOSHIDLH>
0

> <NIOSHICSC>
0

> <NIOSHNPG>
0

> <NIOSHSKIN>
0

> <NORMANCT15>
0

> <SFISHFLUORO>
0

> <NORMANPRI>
0

> <NORMANEWS>
0

> <PFASTRIER>
0

> <SWISSPHARMA>
0

> <PPRTVWEB>
0

> <STOCKHOLM>
0

> <STOFFIDENT>
0

> <SCDM>
0

> <EAWAGSURF>
0

> <SWISSPEST>
0

> <TOX21SL>
0

> <TOXCAST>
0

> <TOXCAST_E1K>
0

> <TOXCAST_PH1V2>
0

> <TOXCAST_PH2>
0

> <TOXCAST_PH3>
0

> <TOXCAST_PHASEI>
0

> <TOXCAST_PHASEII>
0

> <TOXCAST_PHASEIII>
0

> <TRIRELEASE>
0

> <TSCASURF>
0

> <UJIBADE>
0

> <ATHENSSUS>
0

> <UATHTARGETS>
0

$$$$

  Mrv1611108211713492D          

  0  0  0     0  0            999 V3000
M  V30 BEGIN CTAB
M  V30 COUNTS 12 13 0 0 0
M  V30 BEGIN ATOM
M  V30 1 N 5.3343 -2.0521 0 0
M  V30 2 C 4.0583 -2.9401 0 0
M  V30 3 C 2.6507 -2.3152 0 0
M  V30 4 N 1.3352 0 0 0
M  V30 5 C 2.6507 -0.7762 0 0
M  V30 6 C 6.5774 -2.927 0 0
M  V30 7 C 5.3343 -0.4801 0 0
M  V30 8 C 4.5581 -4.4069 0 0
M  V30 9 C 6.1301 -4.4069 0 0
M  V30 10 C 1.3352 -3.0717 0 0
M  V30 11 C 0 -0.7565 0 0
M  V30 12 C 0 -2.3152 0 0
M  V30 END ATOM
M  V30 BEGIN BOND
M  V30 1 1 1 2
M  V30 2 1 1 6
M  V30 3 1 1 7
M  V30 4 1 2 3
M  V30 5 1 2 8
M  V30 6 2 3 5
M  V30 7 1 3 10
M  V30 8 1 4 5
M  V30 9 2 4 11
M  V30 10 1 6 9
M  V30 11 1 8 9
M  V30 12 2 10 12
M  V30 13 1 11 12
M  V30 END BOND
M  V30 END CTAB
M  END

> <INPUT>
C10H14N2

> <FOUND_BY>
MS Ready Formula

> <DTXCID_INDIVIDUAL_COMPONENT>
DTXCID9028128

> <FORMULA_INDIVIDUAL_COMPONENT>
C10H14N2

> <SMILES_INDIVIDUAL_COMPONENT>
CN1CCCC1C1=CN=CC=C1

> <MAPPED_DTXSID>
DTXSID6020931

> <PREFERRED_NAME_DTXSID>
Nicotine hydrochloride

> <CASRN_DTXSID>
2820-51-1

> <FORMULA_MAPPED_DTXSID>
C10H15ClN2

> <SMILES_MAPPED_DTXSID>
Cl.CN1CCC[C@H]1C1=CN=CC=C1

> <MS_READY_SMILES>
CN1CCCC1C1=CN=CC=C1

> <INCHI_STRING_DTXCID>
InChI=1S/C10H14N2/c1-12-7-3-5-10(12)9-4-2-6-11-8-9/h2,4,6,8,10H,3,5,7H2,1H3

> <INCHIKEY_DTXCID>
SNICXCGAKADSCV-UHFFFAOYSA-N

> <MONOISOTOPIC_MASS_DTXCID>
162.115698459

> <EXPOCAST_MEDIAN_EXPOSURE_PREDICTION_MG/KG-BW/DAY>
-

> <EXPOCAST>
0

> <NHANES>
0

> <DATA_SOURCES>
11

> <TOXVAL_DATA>
1

> <TOXCAST_PERCENT_ACTIVE>
-

> <TOXCAST_NUMBER_OF_ASSAYS/TOTAL>
-

> <NUMBER_OF_PUBMED_ARTICLES>
-

> <PUBCHEM_DATA_SOURCES>
15

> <CPDAT_COUNT>
1

> <ATMOSPHERIC_HYDROXYLATION_RATE_(AOH)_CM3/MOLECULE*SEC_OPERA_PRED>
4.3164e-11

> <BIOCONCENTRATION_FACTOR_OPERA_PRED>
6.524

> <BIODEGRADATION_HALF_LIFE_DAYS_DAYS_OPERA_PRED>
3.36018

> <BOILING_POINT_DEGC_OPERA_PRED>
253.418

> <HENRYS_LAW_ATM-M3/MOLE_OPERA_PRED>
6.65993e-06

> <OPERA_KM_DAYS_OPERA_PRED>
5.93649

> <OCTANOL_AIR_PARTITION_COEFF_LOGKOA_OPERA_PRED>
5.80576

> <SOIL_ADSORPTION_COEFFICIENT_KOC_L/KG_OPERA_PRED>
110.746

> <OCTANOL_WATER_PARTITION_LOGP_OPERA_PRED>
1.17766

> <MELTING_POINT_DEGC_OPERA_PRED>
170.223

> <VAPOR_PRESSURE_MMHG_OPERA_PRED>
0.013088

> <WATER_SOLUBILITY_MOL/L_OPERA_PRED>
4.51047

> <TEST_BCF_TEST_PRED>
11.995

> <BOILING_POINT_DEGC_TEST_PRED>
244.899

> <DENSITY_G/CM^3_TEST_PRED>
1.03

> <FLASH_POINT_DEGC_TEST_PRED>
95.541

> <MELTING_POINT_DEGC_TEST_PRED>
18.147

> <SURFACE_TENSION_DYN/CM_TEST_PRED>
36.302

> <THERMAL_CONDUCTIVITY_MW/(M*K)_TEST_PRED>
143.221

> <VISCOSITY_CP_CP_TEST_PRED>
7.2778

> <VAPOR_PRESSURE_MMHG_TEST_PRED>
0.00436516

> <WATER_SOLUBILITY_MOL/L_TEST_PRED>
0.0799834

> <AEGLVALUES>
0

> <ALGALTOX>
0

> <ARCHEMICALS>
0

> <ATSDRLST>
0

> <BISPHENOLS>
0

> <OEHHA>
0

> <CERAPP>
0

> <FUNNAMES>
0

> <KWRSJERPS>
0

> <EPACONS>
0

> <IRIS>
0

> <EPAHFR>
0

> <EUCOSMETICS>
0

> <FRENCHLIST>
0

> <HEROMAP>
0

> <ITNANTIBIOTIC>
0

> <KEMIMARKET>
0

> <MASSBANKREF>
0

> <MASSBANKEUSP>
0

> <NEMILIST>
0

> <NATADB>
0

> <NIOSHIDLH>
0

> <NIOSHICSC>
0

> <NIOSHNPG>
0

> <NIOSHSKIN>
0

> <NORMANCT15>
0

> <SFISHFLUORO>
0

> <NORMANPRI>
0

> <NORMANEWS>
0

> <PFASTRIER>
0

> <SWISSPHARMA>
0

> <PPRTVWEB>
0

> <STOCKHOLM>
0

> <STOFFIDENT>
0

> <SCDM>
0

> <EAWAGSURF>
0

> <SWISSPEST>
0

> <TOX21SL>
0

> <TOXCAST>
0

> <TOXCAST_E1K>
0

> <TOXCAST_PH1V2>
0

> <TOXCAST_PH2>
0

> <TOXCAST_PH3>
0

> <TOXCAST_PHASEI>
0

> <TOXCAST_PHASEII>
0

> <TOXCAST_PHASEIII>
0

> <TRIRELEASE>
0

> <TSCASURF>
0

> <UJIBADE>
0

> <ATHENSSUS>
0

> <UATHTARGETS>
0

$$$$

  Mrv1533009301517242D          

  0  0  0     0  0            999 V3000
M  V30 BEGIN CTAB
M  V30 COUNTS 12 12 0 0 0
M  V30 BEGIN ATOM
M  V30 1 C 7.6816 -1.3371 0 0
M  V30 2 C 6.907 -2.665 0 0
M  V30 3 C 7.6816 -4.0022 0 0
M  V30 4 C 9.2216 -4.0022 0 0
M  V30 5 N 5.367 -2.665 0 0
M  V30 6 N 4.6109 -1.3371 0 0
M  V30 7 C 0.7561 -2.665 0 0
M  V30 8 C 0 -1.3371 0 0
M  V30 9 C 0.7561 0 0 0
M  V30 10 C 2.2962 0 0 0
M  V30 11 C 3.0709 -1.3371 0 0
M  V30 12 C 2.2962 -2.665 0 0
M  V30 END ATOM
M  V30 BEGIN BOND
M  V30 1 1 1 2
M  V30 2 1 2 3
M  V30 3 2 2 5
M  V30 4 1 3 4
M  V30 5 1 5 6
M  V30 6 1 6 11
M  V30 7 2 7 12
M  V30 8 1 7 8
M  V30 9 2 8 9
M  V30 10 1 9 10
M  V30 11 2 10 11
M  V30 12 1 11 12
M  V30 END BOND
M  V30 END CTAB
M  END

> <INPUT>
C10H14N2

> <FOUND_BY>
MS Ready Formula

> <DTXCID_INDIVIDUAL_COMPONENT>
DTXCID3030137

> <FORMULA_INDIVIDUAL_COMPONENT>
C10H14N2

> <SMILES_INDIVIDUAL_COMPONENT>
CC\C(C)=N\NC1=CC=CC=C1

> <MAPPED_DTXSID>
DTXSID9051585

> <PREFERRED_NAME_DTXSID>
Phenylhydrazone-2-butanone

> <CASRN_DTXSID>
1129-62-0

> <FORMULA_MAPPED_DTXSID>
C10H14N2

> <SMILES_MAPPED_DTXSID>
CC\C(C)=N\NC1=CC=CC=C1

> <MS_READY_SMILES>
CCC(C)N=NC1=CC=CC=C1

> <INCHI_STRING_DTXCID>
InChI=1S/C10H14N2/c1-3-9(2)11-12-10-7-5-4-6-8-10/h4-8,12H,3H2,1-2H3/b11-9+

> <INCHIKEY_DTXCID>
BPAJPMUNAALLEK-PKNBQFBNSA-N

> <MONOISOTOPIC_MASS_DTXCID>
162.115698459

> <EXPOCAST_MEDIAN_EXPOSURE_PREDICTION_MG/KG-BW/DAY>
-

> <EXPOCAST>
0

> <NHANES>
0

> <DATA_SOURCES>
11

> <TOXVAL_DATA>
0

> <TOXCAST_PERCENT_ACTIVE>
-

> <TOXCAST_NUMBER_OF_ASSAYS/TOTAL>
-

> <NUMBER_OF_PUBMED_ARTICLES>
-

> <PUBCHEM_DATA_SOURCES>
14

> <CPDAT_COUNT>
1

> <ATMOSPHERIC_HYDROXYLATION_RATE_(AOH)_CM3/MOLECULE*SEC_OPERA_PRED>
4.33001e-11

> <BIOCONCENTRATION_FACTOR_OPERA_PRED>
77.6703

> <BIODEGRADATION_HALF_LIFE_DAYS_DAYS_OPERA_PRED>
3.28061

> <BOILING_POINT_DEGC_OPERA_PRED>
279.16

> <HENRYS_LAW_ATM-M3/MOLE_OPERA_PRED>
3.33724e-08

> <OPERA_KM_DAYS_OPERA_PRED>
0.516934

> <OCTANOL_AIR_PARTITION_COEFF_LOGKOA_OPERA_PRED>
7.54685

> <SOIL_ADSORPTION_COEFFICIENT_KOC_L/KG_OPERA_PRED>
57.8704

> <OCTANOL_WATER_PARTITION_LOGP_OPERA_PRED>
2.35134

> <MELTING_POINT_DEGC_OPERA_PRED>
76.9716

> <VAPOR_PRESSURE_MMHG_OPERA_PRED>
0.0255313

> <WATER_SOLUBILITY_MOL/L_OPERA_PRED>
0.0178692

> <TEST_BCF_TEST_PRED>
69.8232

> <BOILING_POINT_DEGC_TEST_PRED>
220.175

> <DENSITY_G/CM^3_TEST_PRED>
1.072

> <FLASH_POINT_DEGC_TEST_PRED>
98.967

> <MELTING_POINT_DEGC_TEST_PRED>
71.63

> <SURFACE_TENSION_DYN/CM_TEST_PRED>
-

> <THERMAL_CONDUCTIVITY_MW/(M*K)_TEST_PRED>
-

> <VISCOSITY_CP_CP_TEST_PRED>
-

> <VAPOR_PRESSURE_MMHG_TEST_PRED>
0.00025704

> <WATER_SOLUBILITY_MOL/L_TEST_PRED>
0.00526017

> <AEGLVALUES>
0

> <ALGALTOX>
0

> <ARCHEMICALS>
0

> <ATSDRLST>
0

> <BISPHENOLS>
0

> <OEHHA>
0

> <CERAPP>
0

> <FUNNAMES>
0

> <KWRSJERPS>
0

> <EPACONS>
0

> <IRIS>
0

> <EPAHFR>
0

> <EUCOSMETICS>
0

> <FRENCHLIST>
0

> <HEROMAP>
0

> <ITNANTIBIOTIC>
0

> <KEMIMARKET>
1

> <MASSBANKREF>
0

> <MASSBANKEUSP>
0

> <NEMILIST>
0

> <NATADB>
0

> <NIOSHIDLH>
0

> <NIOSHICSC>
0

> <NIOSHNPG>
0

> <NIOSHSKIN>
0

> <NORMANCT15>
0

> <SFISHFLUORO>
0

> <NORMANPRI>
0

> <NORMANEWS>
0

> <PFASTRIER>
0

> <SWISSPHARMA>
0

> <PPRTVWEB>
0

> <STOCKHOLM>
0

> <STOFFIDENT>
0

> <SCDM>
0

> <EAWAGSURF>
0

> <SWISSPEST>
0

> <TOX21SL>
0

> <TOXCAST>
0

> <TOXCAST_E1K>
0

> <TOXCAST_PH1V2>
0

> <TOXCAST_PH2>
0

> <TOXCAST_PH3>
0

> <TOXCAST_PHASEI>
0

> <TOXCAST_PHASEII>
0

> <TOXCAST_PHASEIII>
0

> <TRIRELEASE>
0

> <TSCASURF>
0

> <UJIBADE>
0

> <ATHENSSUS>
0

> <UATHTARGETS>
0

$$$$

  Mrv1533009301517432D          

  0  0  0     0  0            999 V3000
M  V30 BEGIN CTAB
M  V30 COUNTS 12 13 0 0 0
M  V30 BEGIN ATOM
M  V30 1 N 5.7475 1.7692 0 0
M  V30 2 N 5.7475 -2.851 0 0
M  V30 3 C 7.1544 1.1428 0 0
M  V30 4 C 5.9086 3.3008 0 0
M  V30 5 C 8.1848 2.2872 0 0
M  V30 6 C 7.4148 3.621 0 0
M  V30 7 C 4.4137 0.9992 0 0
M  V30 8 C 4.4137 -0.5408 0 0
M  V30 9 C 3.08 -1.311 0 0
M  V30 10 C 5.7475 -1.311 0 0
M  V30 11 C 3.08 -2.851 0 0
M  V30 12 C 4.4137 -3.621 0 0
M  V30 END ATOM
M  V30 BEGIN BOND
M  V30 1 1 1 3
M  V30 2 1 1 4
M  V30 3 1 1 7
M  V30 4 1 2 10
M  V30 5 2 2 12
M  V30 6 1 3 5
M  V30 7 1 4 6
M  V30 8 1 5 6
M  V30 9 1 7 8
M  V30 10 1 8 9
M  V30 11 2 8 10
M  V30 12 2 9 11
M  V30 13 1 11 12
M  V30 END BOND
M  V30 END CTAB
M  END

> <INPUT>
C10H14N2

> <FOUND_BY>
MS Ready Formula

> <DTXCID_INDIVIDUAL_COMPONENT>
DTXCID50112980

> <FORMULA_INDIVIDUAL_COMPONENT>
C10H14N2

> <SMILES_INDIVIDUAL_COMPONENT>
C(N1CCCC1)C1=CN=CC=C1

> <MAPPED_DTXSID>
DTXSID90190489

> <PREFERRED_NAME_DTXSID>
N-(3-Pyridylmethyl)pyrrolidine

> <CASRN_DTXSID>
370-09-2

> <FORMULA_MAPPED_DTXSID>
C10H14N2

> <SMILES_MAPPED_DTXSID>
C(N1CCCC1)C1=CN=CC=C1

> <MS_READY_SMILES>
C(N1CCCC1)C1=CN=CC=C1

> <INCHI_STRING_DTXCID>
InChI=1S/C10H14N2/c1-2-7-12(6-1)9-10-4-3-5-11-8-10/h3-5,8H,1-2,6-7,9H2

> <INCHIKEY_DTXCID>
YFCWBKBNFCDPDF-UHFFFAOYSA-N

> <MONOISOTOPIC_MASS_DTXCID>
162.115698459

> <EXPOCAST_MEDIAN_EXPOSURE_PREDICTION_MG/KG-BW/DAY>
-

> <EXPOCAST>
0

> <NHANES>
0

> <DATA_SOURCES>
10

> <TOXVAL_DATA>
0

> <TOXCAST_PERCENT_ACTIVE>
-

> <TOXCAST_NUMBER_OF_ASSAYS/TOTAL>
-

> <NUMBER_OF_PUBMED_ARTICLES>
3.0

> <PUBCHEM_DATA_SOURCES>
31

> <CPDAT_COUNT>
-

> <ATMOSPHERIC_HYDROXYLATION_RATE_(AOH)_CM3/MOLECULE*SEC_OPERA_PRED>
4.31006e-11

> <BIOCONCENTRATION_FACTOR_OPERA_PRED>
4.65862

> <BIODEGRADATION_HALF_LIFE_DAYS_DAYS_OPERA_PRED>
3.36498

> <BOILING_POINT_DEGC_OPERA_PRED>
259.102

> <HENRYS_LAW_ATM-M3/MOLE_OPERA_PRED>
4.70896e-06

> <OPERA_KM_DAYS_OPERA_PRED>
1.93834

> <OCTANOL_AIR_PARTITION_COEFF_LOGKOA_OPERA_PRED>
5.68504

> <SOIL_ADSORPTION_COEFFICIENT_KOC_L/KG_OPERA_PRED>
160.543

> <OCTANOL_WATER_PARTITION_LOGP_OPERA_PRED>
1.15257

> <MELTING_POINT_DEGC_OPERA_PRED>
-26.7503

> <VAPOR_PRESSURE_MMHG_OPERA_PRED>
0.00657317

> <WATER_SOLUBILITY_MOL/L_OPERA_PRED>
1.59144

> <TEST_BCF_TEST_PRED>
7.43019

> <BOILING_POINT_DEGC_TEST_PRED>
257.624

> <DENSITY_G/CM^3_TEST_PRED>
1.034

> <FLASH_POINT_DEGC_TEST_PRED>
108.298

> <MELTING_POINT_DEGC_TEST_PRED>
19.625

> <SURFACE_TENSION_DYN/CM_TEST_PRED>
36.257

> <THERMAL_CONDUCTIVITY_MW/(M*K)_TEST_PRED>
147.576

> <VISCOSITY_CP_CP_TEST_PRED>
4.69894

> <VAPOR_PRESSURE_MMHG_TEST_PRED>
0.0108643

> <WATER_SOLUBILITY_MOL/L_TEST_PRED>
0.10617

> <AEGLVALUES>
0

> <ALGALTOX>
0

> <ARCHEMICALS>
0

> <ATSDRLST>
0

> <BISPHENOLS>
0

> <OEHHA>
0

> <CERAPP>
0

> <FUNNAMES>
0

> <KWRSJERPS>
0

> <EPACONS>
0

> <IRIS>
0

> <EPAHFR>
0

> <EUCOSMETICS>
0

> <FRENCHLIST>
0

> <HEROMAP>
0

> <ITNANTIBIOTIC>
0

> <KEMIMARKET>
0

> <MASSBANKREF>
0

> <MASSBANKEUSP>
0

> <NEMILIST>
0

> <NATADB>
0

> <NIOSHIDLH>
0

> <NIOSHICSC>
0

> <NIOSHNPG>
0

> <NIOSHSKIN>
0

> <NORMANCT15>
0

> <SFISHFLUORO>
0

> <NORMANPRI>
0

> <NORMANEWS>
0

> <PFASTRIER>
0

> <SWISSPHARMA>
0

> <PPRTVWEB>
0

> <STOCKHOLM>
0

> <STOFFIDENT>
0

> <SCDM>
0

> <EAWAGSURF>
0

> <SWISSPEST>
0

> <TOX21SL>
0

> <TOXCAST>
0

> <TOXCAST_E1K>
0

> <TOXCAST_PH1V2>
0

> <TOXCAST_PH2>
0

> <TOXCAST_PH3>
0

> <TOXCAST_PHASEI>
0

> <TOXCAST_PHASEII>
0

> <TOXCAST_PHASEIII>
0

> <TRIRELEASE>
0

> <TSCASURF>
0

> <UJIBADE>
0

> <ATHENSSUS>
0

> <UATHTARGETS>
0

$$$$

  Mrv1533009301517252D          

  0  0  0     0  0            999 V3000
M  V30 BEGIN CTAB
M  V30 COUNTS 12 12 0 0 0
M  V30 BEGIN ATOM
M  V30 1 C 1.3337 2.31 0 0
M  V30 2 C 2.6673 1.54 0 0
M  V30 3 C 2.6673 0 0 0
M  V30 4 C 1.3337 -0.77 0 0
M  V30 5 C 0 0 0 0
M  V30 6 C 0 1.54 0 0
M  V30 7 C 4.001 2.31 0 0
M  V30 8 N 1.3337 3.85 0 0
M  V30 9 C 2.6673 4.62 0 0
M  V30 10 N 2.6673 6.16 0 0
M  V30 11 C 1.3337 6.93 0 0
M  V30 12 C 4.001 6.93 0 0
M  V30 END ATOM
M  V30 BEGIN BOND
M  V30 1 2 1 2
M  V30 2 1 2 3
M  V30 3 2 3 4
M  V30 4 1 4 5
M  V30 5 2 5 6
M  V30 6 1 1 6
M  V30 7 1 2 7
M  V30 8 1 8 1 CFG=2
M  V30 9 2 8 9
M  V30 10 1 9 10
M  V30 11 1 10 11
M  V30 12 1 10 12
M  V30 END BOND
M  V30 END CTAB
M  END

> <INPUT>
C10H14N2

> <FOUND_BY>
MS Ready Formula

> <DTXCID_INDIVIDUAL_COMPONENT>
DTXCID5032737

> <FORMULA_INDIVIDUAL_COMPONENT>
C10H14N2

> <SMILES_INDIVIDUAL_COMPONENT>
CN(C)C=NC1=C(C)C=CC=C1

> <MAPPED_DTXSID>
DTXSID4065020

> <PREFERRED_NAME_DTXSID>
Methanimidamide, N,N-dimethyl-N'-(2-methylphenyl)-

> <CASRN_DTXSID>
10278-71-4

> <FORMULA_MAPPED_DTXSID>
C10H14N2

> <SMILES_MAPPED_DTXSID>
CN(C)C=NC1=C(C)C=CC=C1

> <MS_READY_SMILES>
CN(C)C=NC1=C(C)C=CC=C1

> <INCHI_STRING_DTXCID>
InChI=1S/C10H14N2/c1-9-6-4-5-7-10(9)11-8-12(2)3/h4-8H,1-3H3

> <INCHIKEY_DTXCID>
VTJDEAHIKIEJET-UHFFFAOYSA-N

> <MONOISOTOPIC_MASS_DTXCID>
162.115698459

> <EXPOCAST_MEDIAN_EXPOSURE_PREDICTION_MG/KG-BW/DAY>
-

> <EXPOCAST>
0

> <NHANES>
0

> <DATA_SOURCES>
7

> <TOXVAL_DATA>
0

> <TOXCAST_PERCENT_ACTIVE>
-

> <TOXCAST_NUMBER_OF_ASSAYS/TOTAL>
-

> <NUMBER_OF_PUBMED_ARTICLES>
-

> <PUBCHEM_DATA_SOURCES>
23

> <CPDAT_COUNT>
-

> <ATMOSPHERIC_HYDROXYLATION_RATE_(AOH)_CM3/MOLECULE*SEC_OPERA_PRED>
3.55097e-11

> <BIOCONCENTRATION_FACTOR_OPERA_PRED>
4.90765

> <BIODEGRADATION_HALF_LIFE_DAYS_DAYS_OPERA_PRED>
4.91996

> <BOILING_POINT_DEGC_OPERA_PRED>
220.374

> <HENRYS_LAW_ATM-M3/MOLE_OPERA_PRED>
9.39047e-06

> <OPERA_KM_DAYS_OPERA_PRED>
1.91109

> <OCTANOL_AIR_PARTITION_COEFF_LOGKOA_OPERA_PRED>
4.45184

> <SOIL_ADSORPTION_COEFFICIENT_KOC_L/KG_OPERA_PRED>
61.0601

> <OCTANOL_WATER_PARTITION_LOGP_OPERA_PRED>
1.52235

> <MELTING_POINT_DEGC_OPERA_PRED>
48.3848

> <VAPOR_PRESSURE_MMHG_OPERA_PRED>
0.00662166

> <WATER_SOLUBILITY_MOL/L_OPERA_PRED>
0.00105326

> <TEST_BCF_TEST_PRED>
15.4525

> <BOILING_POINT_DEGC_TEST_PRED>
-

> <DENSITY_G/CM^3_TEST_PRED>
1.124

> <FLASH_POINT_DEGC_TEST_PRED>
112.013

> <MELTING_POINT_DEGC_TEST_PRED>
75.486

> <SURFACE_TENSION_DYN/CM_TEST_PRED>
-

> <THERMAL_CONDUCTIVITY_MW/(M*K)_TEST_PRED>
-

> <VISCOSITY_CP_CP_TEST_PRED>
-

> <VAPOR_PRESSURE_MMHG_TEST_PRED>
-

> <WATER_SOLUBILITY_MOL/L_TEST_PRED>
0.00950605

> <AEGLVALUES>
0

> <ALGALTOX>
0

> <ARCHEMICALS>
0

> <ATSDRLST>
0

> <BISPHENOLS>
0

> <OEHHA>
0

> <CERAPP>
0

> <FUNNAMES>
0

> <KWRSJERPS>
0

> <EPACONS>
0

> <IRIS>
0

> <EPAHFR>
0

> <EUCOSMETICS>
0

> <FRENCHLIST>
0

> <HEROMAP>
0

> <ITNANTIBIOTIC>
0

> <KEMIMARKET>
1

> <MASSBANKREF>
0

> <MASSBANKEUSP>
0

> <NEMILIST>
0

> <NATADB>
0

> <NIOSHIDLH>
0

> <NIOSHICSC>
0

> <NIOSHNPG>
0

> <NIOSHSKIN>
0

> <NORMANCT15>
0

> <SFISHFLUORO>
0

> <NORMANPRI>
0

> <NORMANEWS>
0

> <PFASTRIER>
0

> <SWISSPHARMA>
0

> <PPRTVWEB>
0

> <STOCKHOLM>
0

> <STOFFIDENT>
0

> <SCDM>
0

> <EAWAGSURF>
0

> <SWISSPEST>
0

> <TOX21SL>
0

> <TOXCAST>
0

> <TOXCAST_E1K>
0

> <TOXCAST_PH1V2>
0

> <TOXCAST_PH2>
0

> <TOXCAST_PH3>
0

> <TOXCAST_PHASEI>
0

> <TOXCAST_PHASEII>
0

> <TOXCAST_PHASEIII>
0

> <TRIRELEASE>
0

> <TSCASURF>
0

> <UJIBADE>
0

> <ATHENSSUS>
0

> <UATHTARGETS>
0

$$$$

  Mrv1611108211713492D          

  0  0  0     0  0            999 V3000
M  V30 BEGIN CTAB
M  V30 COUNTS 12 13 0 0 0
M  V30 BEGIN ATOM
M  V30 1 N 5.3343 -2.0521 0 0
M  V30 2 C 4.0583 -2.9401 0 0
M  V30 3 C 2.6507 -2.3152 0 0
M  V30 4 N 1.3352 0 0 0
M  V30 5 C 2.6507 -0.7762 0 0
M  V30 6 C 6.5774 -2.927 0 0
M  V30 7 C 5.3343 -0.4801 0 0
M  V30 8 C 4.5581 -4.4069 0 0
M  V30 9 C 6.1301 -4.4069 0 0
M  V30 10 C 1.3352 -3.0717 0 0
M  V30 11 C 0 -0.7565 0 0
M  V30 12 C 0 -2.3152 0 0
M  V30 END ATOM
M  V30 BEGIN BOND
M  V30 1 1 1 2
M  V30 2 1 1 6
M  V30 3 1 1 7
M  V30 4 1 2 3
M  V30 5 1 2 8
M  V30 6 2 3 5
M  V30 7 1 3 10
M  V30 8 1 4 5
M  V30 9 2 4 11
M  V30 10 1 6 9
M  V30 11 1 8 9
M  V30 12 2 10 12
M  V30 13 1 11 12
M  V30 END BOND
M  V30 END CTAB
M  END

> <INPUT>
C10H14N2

> <FOUND_BY>
MS Ready Formula

> <DTXCID_INDIVIDUAL_COMPONENT>
DTXCID9028128

> <FORMULA_INDIVIDUAL_COMPONENT>
C10H14N2

> <SMILES_INDIVIDUAL_COMPONENT>
CN1CCCC1C1=CN=CC=C1

> <MAPPED_DTXSID>
DTXSID5075319

> <PREFERRED_NAME_DTXSID>
Benzoic acid, 2-hydroxy-, compd. with 3-[(2S)-1-methyl-2-pyrrolidinyl]pyridine (1:1)

> <CASRN_DTXSID>
29790-52-1

> <FORMULA_MAPPED_DTXSID>
C17H20N2O3

> <SMILES_MAPPED_DTXSID>
OC(=O)C1=C(O)C=CC=C1.CN1CCC[C@H]1C1=CN=CC=C1

> <MS_READY_SMILES>
CN1CCCC1C1=CN=CC=C1,OC(=O)C1=C(O)C=CC=C1

> <INCHI_STRING_DTXCID>
InChI=1S/C10H14N2/c1-12-7-3-5-10(12)9-4-2-6-11-8-9/h2,4,6,8,10H,3,5,7H2,1H3

> <INCHIKEY_DTXCID>
SNICXCGAKADSCV-UHFFFAOYSA-N

> <MONOISOTOPIC_MASS_DTXCID>
162.115698459

> <EXPOCAST_MEDIAN_EXPOSURE_PREDICTION_MG/KG-BW/DAY>
-

> <EXPOCAST>
0

> <NHANES>
0

> <DATA_SOURCES>
7

> <TOXVAL_DATA>
0

> <TOXCAST_PERCENT_ACTIVE>
-

> <TOXCAST_NUMBER_OF_ASSAYS/TOTAL>
-

> <NUMBER_OF_PUBMED_ARTICLES>
-

> <PUBCHEM_DATA_SOURCES>
11

> <CPDAT_COUNT>
1

> <ATMOSPHERIC_HYDROXYLATION_RATE_(AOH)_CM3/MOLECULE*SEC_OPERA_PRED>
4.3164e-11

> <BIOCONCENTRATION_FACTOR_OPERA_PRED>
6.524

> <BIODEGRADATION_HALF_LIFE_DAYS_DAYS_OPERA_PRED>
3.36018

> <BOILING_POINT_DEGC_OPERA_PRED>
253.418

> <HENRYS_LAW_ATM-M3/MOLE_OPERA_PRED>
6.65993e-06

> <OPERA_KM_DAYS_OPERA_PRED>
5.93649

> <OCTANOL_AIR_PARTITION_COEFF_LOGKOA_OPERA_PRED>
5.80576

> <SOIL_ADSORPTION_COEFFICIENT_KOC_L/KG_OPERA_PRED>
110.746

> <OCTANOL_WATER_PARTITION_LOGP_OPERA_PRED>
1.17766

> <MELTING_POINT_DEGC_OPERA_PRED>
-47.8088

> <VAPOR_PRESSURE_MMHG_OPERA_PRED>
0.013088

> <WATER_SOLUBILITY_MOL/L_OPERA_PRED>
4.51047

> <TEST_BCF_TEST_PRED>
11.995

> <BOILING_POINT_DEGC_TEST_PRED>
244.899

> <DENSITY_G/CM^3_TEST_PRED>
1.03

> <FLASH_POINT_DEGC_TEST_PRED>
95.541

> <MELTING_POINT_DEGC_TEST_PRED>
18.147

> <SURFACE_TENSION_DYN/CM_TEST_PRED>
36.302

> <THERMAL_CONDUCTIVITY_MW/(M*K)_TEST_PRED>
143.221

> <VISCOSITY_CP_CP_TEST_PRED>
7.2778

> <VAPOR_PRESSURE_MMHG_TEST_PRED>
0.00436516

> <WATER_SOLUBILITY_MOL/L_TEST_PRED>
0.0799834

> <AEGLVALUES>
0

> <ALGALTOX>
0

> <ARCHEMICALS>
0

> <ATSDRLST>
0

> <BISPHENOLS>
0

> <OEHHA>
0

> <CERAPP>
0

> <FUNNAMES>
0

> <KWRSJERPS>
0

> <EPACONS>
0

> <IRIS>
0

> <EPAHFR>
0

> <EUCOSMETICS>
0

> <FRENCHLIST>
0

> <HEROMAP>
0

> <ITNANTIBIOTIC>
0

> <KEMIMARKET>
0

> <MASSBANKREF>
0

> <MASSBANKEUSP>
0

> <NEMILIST>
0

> <NATADB>
0

> <NIOSHIDLH>
0

> <NIOSHICSC>
0

> <NIOSHNPG>
0

> <NIOSHSKIN>
0

> <NORMANCT15>
0

> <SFISHFLUORO>
0

> <NORMANPRI>
0

> <NORMANEWS>
0

> <PFASTRIER>
0

> <SWISSPHARMA>
0

> <PPRTVWEB>
0

> <STOCKHOLM>
0

> <STOFFIDENT>
0

> <SCDM>
0

> <EAWAGSURF>
0

> <SWISSPEST>
0

> <TOX21SL>
0

> <TOXCAST>
0

> <TOXCAST_E1K>
0

> <TOXCAST_PH1V2>
0

> <TOXCAST_PH2>
0

> <TOXCAST_PH3>
0

> <TOXCAST_PHASEI>
0

> <TOXCAST_PHASEII>
0

> <TOXCAST_PHASEIII>
0

> <TRIRELEASE>
0

> <TSCASURF>
0

> <UJIBADE>
0

> <ATHENSSUS>
0

> <UATHTARGETS>
0

$$$$

  Mrv1533009301517252D          

  0  0  0     0  0            999 V3000
M  V30 BEGIN CTAB
M  V30 COUNTS 12 13 0 0 0
M  V30 BEGIN ATOM
M  V30 1 C 2.3066 -6.6665 0 0
M  V30 2 C 3.0799 -5.3332 0 0
M  V30 3 N 2.3066 -3.9999 0 0
M  V30 4 C 0.7667 -3.9999 0 0
M  V30 5 C 0 -5.3332 0 0
M  V30 6 N 0.7667 -6.6665 0 0
M  V30 7 C 3.0799 -2.6665 0 0
M  V30 8 C 4.6199 -2.6665 0 0
M  V30 9 C 5.3866 -1.3333 0 0
M  V30 10 C 4.6199 0 0 0
M  V30 11 C 3.0799 0 0 0
M  V30 12 C 2.3066 -1.3333 0 0
M  V30 END ATOM
M  V30 BEGIN BOND
M  V30 1 1 1 2
M  V30 2 1 1 6
M  V30 3 1 2 3
M  V30 4 1 3 4
M  V30 5 1 3 7
M  V30 6 1 4 5
M  V30 7 1 5 6
M  V30 8 2 7 8
M  V30 9 1 7 12
M  V30 10 1 8 9
M  V30 11 2 9 10
M  V30 12 1 10 11
M  V30 13 2 11 12
M  V30 END BOND
M  V30 END CTAB
M  END

> <INPUT>
C10H14N2

> <FOUND_BY>
MS Ready Formula

> <DTXCID_INDIVIDUAL_COMPONENT>
DTXCID9031644

> <FORMULA_INDIVIDUAL_COMPONENT>
C10H14N2

> <SMILES_INDIVIDUAL_COMPONENT>
C1CN(CCN1)C1=CC=CC=C1

> <MAPPED_DTXSID>
DTXSID40176612

> <PREFERRED_NAME_DTXSID>
Piperazine, 1-phenyl-, hydrochloride

> <CASRN_DTXSID>
2210-93-7

> <FORMULA_MAPPED_DTXSID>
C10H15ClN2

> <SMILES_MAPPED_DTXSID>
Cl.C1CN(CCN1)C1=CC=CC=C1

> <MS_READY_SMILES>
C1CN(CCN1)C1=CC=CC=C1

> <INCHI_STRING_DTXCID>
InChI=1S/C10H14N2/c1-2-4-10(5-3-1)12-8-6-11-7-9-12/h1-5,11H,6-9H2

> <INCHIKEY_DTXCID>
YZTJYBJCZXZGCT-UHFFFAOYSA-N

> <MONOISOTOPIC_MASS_DTXCID>
162.115698459

> <EXPOCAST_MEDIAN_EXPOSURE_PREDICTION_MG/KG-BW/DAY>
-

> <EXPOCAST>
0

> <NHANES>
0

> <DATA_SOURCES>
7

> <TOXVAL_DATA>
0

> <TOXCAST_PERCENT_ACTIVE>
-

> <TOXCAST_NUMBER_OF_ASSAYS/TOTAL>
-

> <NUMBER_OF_PUBMED_ARTICLES>
100.0

> <PUBCHEM_DATA_SOURCES>
58

> <CPDAT_COUNT>
2

> <ATMOSPHERIC_HYDROXYLATION_RATE_(AOH)_CM3/MOLECULE*SEC_OPERA_PRED>
1.75521e-11

> <BIOCONCENTRATION_FACTOR_OPERA_PRED>
6.19709

> <BIODEGRADATION_HALF_LIFE_DAYS_DAYS_OPERA_PRED>
12.0774

> <BOILING_POINT_DEGC_OPERA_PRED>
288.087

> <HENRYS_LAW_ATM-M3/MOLE_OPERA_PRED>
2.60688e-07

> <OPERA_KM_DAYS_OPERA_PRED>
0.30067

> <OCTANOL_AIR_PARTITION_COEFF_LOGKOA_OPERA_PRED>
8.55338

> <SOIL_ADSORPTION_COEFFICIENT_KOC_L/KG_OPERA_PRED>
160.634

> <OCTANOL_WATER_PARTITION_LOGP_OPERA_PRED>
1.21176

> <MELTING_POINT_DEGC_OPERA_PRED>
164.332

> <VAPOR_PRESSURE_MMHG_OPERA_PRED>
0.00666262

> <WATER_SOLUBILITY_MOL/L_OPERA_PRED>
0.145931

> <TEST_BCF_TEST_PRED>
8.24138

> <BOILING_POINT_DEGC_TEST_PRED>
272.941

> <DENSITY_G/CM^3_TEST_PRED>
1.028

> <FLASH_POINT_DEGC_TEST_PRED>
118.779

> <MELTING_POINT_DEGC_TEST_PRED>
57.971

> <SURFACE_TENSION_DYN/CM_TEST_PRED>
37.464

> <THERMAL_CONDUCTIVITY_MW/(M*K)_TEST_PRED>
161.939

> <VISCOSITY_CP_CP_TEST_PRED>
7.16143

> <VAPOR_PRESSURE_MMHG_TEST_PRED>
0.00416869

> <WATER_SOLUBILITY_MOL/L_TEST_PRED>
0.0399025

> <AEGLVALUES>
0

> <ALGALTOX>
0

> <ARCHEMICALS>
0

> <ATSDRLST>
0

> <BISPHENOLS>
0

> <OEHHA>
0

> <CERAPP>
0

> <FUNNAMES>
0

> <KWRSJERPS>
0

> <EPACONS>
0

> <IRIS>
0

> <EPAHFR>
0

> <EUCOSMETICS>
0

> <FRENCHLIST>
0

> <HEROMAP>
0

> <ITNANTIBIOTIC>
0

> <KEMIMARKET>
0

> <MASSBANKREF>
0

> <MASSBANKEUSP>
0

> <NEMILIST>
0

> <NATADB>
0

> <NIOSHIDLH>
0

> <NIOSHICSC>
0

> <NIOSHNPG>
0

> <NIOSHSKIN>
0

> <NORMANCT15>
0

> <SFISHFLUORO>
0

> <NORMANPRI>
0

> <NORMANEWS>
0

> <PFASTRIER>
0

> <SWISSPHARMA>
0

> <PPRTVWEB>
0

> <STOCKHOLM>
0

> <STOFFIDENT>
0

> <SCDM>
0

> <EAWAGSURF>
0

> <SWISSPEST>
0

> <TOX21SL>
0

> <TOXCAST>
0

> <TOXCAST_E1K>
0

> <TOXCAST_PH1V2>
0

> <TOXCAST_PH2>
0

> <TOXCAST_PH3>
0

> <TOXCAST_PHASEI>
0

> <TOXCAST_PHASEII>
0

> <TOXCAST_PHASEIII>
0

> <TRIRELEASE>
0

> <TSCASURF>
0

> <UJIBADE>
0

> <ATHENSSUS>
0

> <UATHTARGETS>
0

$$$$

  Mrv1533009301517412D          

  0  0  0     0  0            999 V3000
M  V30 BEGIN CTAB
M  V30 COUNTS 12 13 0 0 0
M  V30 BEGIN ATOM
M  V30 1 N 4.4137 0.77 0 0
M  V30 2 N 4.4137 -3.85 0 0
M  V30 3 C 4.4137 3.85 0 0
M  V30 4 C 3.08 3.08 0 0
M  V30 5 C 5.7475 3.08 0 0
M  V30 6 C 3.08 1.54 0 0
M  V30 7 C 5.7475 1.54 0 0
M  V30 8 C 4.4137 -0.77 0 0
M  V30 9 C 3.08 -1.54 0 0
M  V30 10 C 5.7475 -1.54 0 0
M  V30 11 C 3.08 -3.08 0 0
M  V30 12 C 5.7475 -3.08 0 0
M  V30 END ATOM
M  V30 BEGIN BOND
M  V30 1 1 1 6
M  V30 2 1 1 7
M  V30 3 1 1 8
M  V30 4 2 2 11
M  V30 5 1 2 12
M  V30 6 1 3 4
M  V30 7 1 3 5
M  V30 8 1 4 6
M  V30 9 1 5 7
M  V30 10 2 8 9
M  V30 11 1 8 10
M  V30 12 1 9 11
M  V30 13 2 10 12
M  V30 END BOND
M  V30 END CTAB
M  END

> <INPUT>
C10H14N2

> <FOUND_BY>
MS Ready Formula

> <DTXCID_INDIVIDUAL_COMPONENT>
DTXCID80104530

> <FORMULA_INDIVIDUAL_COMPONENT>
C10H14N2

> <SMILES_INDIVIDUAL_COMPONENT>
C1CCN(CC1)C1=CC=NC=C1

> <MAPPED_DTXSID>
DTXSID20182039

> <PREFERRED_NAME_DTXSID>
4-Piperidylpyridine

> <CASRN_DTXSID>
2767-90-0

> <FORMULA_MAPPED_DTXSID>
C10H14N2

> <SMILES_MAPPED_DTXSID>
C1CCN(CC1)C1=CC=NC=C1

> <MS_READY_SMILES>
C1CCN(CC1)C1=CC=NC=C1

> <INCHI_STRING_DTXCID>
InChI=1S/C10H14N2/c1-2-8-12(9-3-1)10-4-6-11-7-5-10/h4-7H,1-3,8-9H2

> <INCHIKEY_DTXCID>
MTPBUCCXRGSDCR-UHFFFAOYSA-N

> <MONOISOTOPIC_MASS_DTXCID>
162.115698459

> <EXPOCAST_MEDIAN_EXPOSURE_PREDICTION_MG/KG-BW/DAY>
-

> <EXPOCAST>
0

> <NHANES>
0

> <DATA_SOURCES>
7

> <TOXVAL_DATA>
0

> <TOXCAST_PERCENT_ACTIVE>
-

> <TOXCAST_NUMBER_OF_ASSAYS/TOTAL>
-

> <NUMBER_OF_PUBMED_ARTICLES>
-

> <PUBCHEM_DATA_SOURCES>
84

> <CPDAT_COUNT>
-

> <ATMOSPHERIC_HYDROXYLATION_RATE_(AOH)_CM3/MOLECULE*SEC_OPERA_PRED>
4.29939e-11

> <BIOCONCENTRATION_FACTOR_OPERA_PRED>
12.8394

> <BIODEGRADATION_HALF_LIFE_DAYS_DAYS_OPERA_PRED>
4.90659

> <BOILING_POINT_DEGC_OPERA_PRED>
257.842

> <HENRYS_LAW_ATM-M3/MOLE_OPERA_PRED>
6.7017e-06

> <OPERA_KM_DAYS_OPERA_PRED>
2.60066

> <OCTANOL_AIR_PARTITION_COEFF_LOGKOA_OPERA_PRED>
6.34764

> <SOIL_ADSORPTION_COEFFICIENT_KOC_L/KG_OPERA_PRED>
167.119

> <OCTANOL_WATER_PARTITION_LOGP_OPERA_PRED>
1.89555

> <MELTING_POINT_DEGC_OPERA_PRED>
124.599

> <VAPOR_PRESSURE_MMHG_OPERA_PRED>
0.00354721

> <WATER_SOLUBILITY_MOL/L_OPERA_PRED>
0.781861

> <TEST_BCF_TEST_PRED>
17.338

> <BOILING_POINT_DEGC_TEST_PRED>
270.508

> <DENSITY_G/CM^3_TEST_PRED>
1.033

> <FLASH_POINT_DEGC_TEST_PRED>
108.53

> <MELTING_POINT_DEGC_TEST_PRED>
31.231

> <SURFACE_TENSION_DYN/CM_TEST_PRED>
37.167

> <THERMAL_CONDUCTIVITY_MW/(M*K)_TEST_PRED>
146.354

> <VISCOSITY_CP_CP_TEST_PRED>
6.223

> <VAPOR_PRESSURE_MMHG_TEST_PRED>
0.0187932

> <WATER_SOLUBILITY_MOL/L_TEST_PRED>
0.0267917

> <AEGLVALUES>
0

> <ALGALTOX>
0

> <ARCHEMICALS>
0

> <ATSDRLST>
0

> <BISPHENOLS>
0

> <OEHHA>
0

> <CERAPP>
0

> <FUNNAMES>
0

> <KWRSJERPS>
0

> <EPACONS>
0

> <IRIS>
0

> <EPAHFR>
0

> <EUCOSMETICS>
0

> <FRENCHLIST>
0

> <HEROMAP>
0

> <ITNANTIBIOTIC>
0

> <KEMIMARKET>
1

> <MASSBANKREF>
0

> <MASSBANKEUSP>
0

> <NEMILIST>
0

> <NATADB>
0

> <NIOSHIDLH>
0

> <NIOSHICSC>
0

> <NIOSHNPG>
0

> <NIOSHSKIN>
0

> <NORMANCT15>
0

> <SFISHFLUORO>
0

> <NORMANPRI>
0

> <NORMANEWS>
0

> <PFASTRIER>
0

> <SWISSPHARMA>
0

> <PPRTVWEB>
0

> <STOCKHOLM>
0

> <STOFFIDENT>
0

> <SCDM>
0

> <EAWAGSURF>
0

> <SWISSPEST>
0

> <TOX21SL>
0

> <TOXCAST>
0

> <TOXCAST_E1K>
0

> <TOXCAST_PH1V2>
0

> <TOXCAST_PH2>
0

> <TOXCAST_PH3>
0

> <TOXCAST_PHASEI>
0

> <TOXCAST_PHASEII>
0

> <TOXCAST_PHASEIII>
0

> <TRIRELEASE>
0

> <TSCASURF>
0

> <UJIBADE>
0

> <ATHENSSUS>
0

> <UATHTARGETS>
0

$$$$

  Mrv1533009301517252D          

  0  0  0     0  0            999 V3000
M  V30 BEGIN CTAB
M  V30 COUNTS 12 13 0 0 0
M  V30 BEGIN ATOM
M  V30 1 C 2.3066 -6.6665 0 0
M  V30 2 C 3.0799 -5.3332 0 0
M  V30 3 N 2.3066 -3.9999 0 0
M  V30 4 C 0.7667 -3.9999 0 0
M  V30 5 C 0 -5.3332 0 0
M  V30 6 N 0.7667 -6.6665 0 0
M  V30 7 C 3.0799 -2.6665 0 0
M  V30 8 C 4.6199 -2.6665 0 0
M  V30 9 C 5.3866 -1.3333 0 0
M  V30 10 C 4.6199 0 0 0
M  V30 11 C 3.0799 0 0 0
M  V30 12 C 2.3066 -1.3333 0 0
M  V30 END ATOM
M  V30 BEGIN BOND
M  V30 1 1 1 2
M  V30 2 1 1 6
M  V30 3 1 2 3
M  V30 4 1 3 4
M  V30 5 1 3 7
M  V30 6 1 4 5
M  V30 7 1 5 6
M  V30 8 2 7 8
M  V30 9 1 7 12
M  V30 10 1 8 9
M  V30 11 2 9 10
M  V30 12 1 10 11
M  V30 13 2 11 12
M  V30 END BOND
M  V30 END CTAB
M  END

> <INPUT>
C10H14N2

> <FOUND_BY>
MS Ready Formula

> <DTXCID_INDIVIDUAL_COMPONENT>
DTXCID9031644

> <FORMULA_INDIVIDUAL_COMPONENT>
C10H14N2

> <SMILES_INDIVIDUAL_COMPONENT>
C1CN(CCN1)C1=CC=CC=C1

> <MAPPED_DTXSID>
DTXSID40193102

> <PREFERRED_NAME_DTXSID>
1-Phenylpiperazine dihydrochloride

> <CASRN_DTXSID>
4004-95-9

> <FORMULA_MAPPED_DTXSID>
C10H16Cl2N2

> <SMILES_MAPPED_DTXSID>
Cl.Cl.C1CN(CCN1)C1=CC=CC=C1

> <MS_READY_SMILES>
C1CN(CCN1)C1=CC=CC=C1

> <INCHI_STRING_DTXCID>
InChI=1S/C10H14N2/c1-2-4-10(5-3-1)12-8-6-11-7-9-12/h1-5,11H,6-9H2

> <INCHIKEY_DTXCID>
YZTJYBJCZXZGCT-UHFFFAOYSA-N

> <MONOISOTOPIC_MASS_DTXCID>
162.115698459

> <EXPOCAST_MEDIAN_EXPOSURE_PREDICTION_MG/KG-BW/DAY>
-

> <EXPOCAST>
0

> <NHANES>
0

> <DATA_SOURCES>
6

> <TOXVAL_DATA>
0

> <TOXCAST_PERCENT_ACTIVE>
-

> <TOXCAST_NUMBER_OF_ASSAYS/TOTAL>
-

> <NUMBER_OF_PUBMED_ARTICLES>
100.0

> <PUBCHEM_DATA_SOURCES>
26

> <CPDAT_COUNT>
-

> <ATMOSPHERIC_HYDROXYLATION_RATE_(AOH)_CM3/MOLECULE*SEC_OPERA_PRED>
1.75521e-11

> <BIOCONCENTRATION_FACTOR_OPERA_PRED>
6.19709

> <BIODEGRADATION_HALF_LIFE_DAYS_DAYS_OPERA_PRED>
12.0774

> <BOILING_POINT_DEGC_OPERA_PRED>
288.087

> <HENRYS_LAW_ATM-M3/MOLE_OPERA_PRED>
2.60688e-07

> <OPERA_KM_DAYS_OPERA_PRED>
0.30067

> <OCTANOL_AIR_PARTITION_COEFF_LOGKOA_OPERA_PRED>
8.55338

> <SOIL_ADSORPTION_COEFFICIENT_KOC_L/KG_OPERA_PRED>
160.634

> <OCTANOL_WATER_PARTITION_LOGP_OPERA_PRED>
1.21176

> <MELTING_POINT_DEGC_OPERA_PRED>
46.0018

> <VAPOR_PRESSURE_MMHG_OPERA_PRED>
0.00666262

> <WATER_SOLUBILITY_MOL/L_OPERA_PRED>
0.145931

> <TEST_BCF_TEST_PRED>
8.24138

> <BOILING_POINT_DEGC_TEST_PRED>
272.941

> <DENSITY_G/CM^3_TEST_PRED>
1.028

> <FLASH_POINT_DEGC_TEST_PRED>
118.779

> <MELTING_POINT_DEGC_TEST_PRED>
57.971

> <SURFACE_TENSION_DYN/CM_TEST_PRED>
37.464

> <THERMAL_CONDUCTIVITY_MW/(M*K)_TEST_PRED>
161.939

> <VISCOSITY_CP_CP_TEST_PRED>
7.16143

> <VAPOR_PRESSURE_MMHG_TEST_PRED>
0.00416869

> <WATER_SOLUBILITY_MOL/L_TEST_PRED>
0.0399025

> <AEGLVALUES>
0

> <ALGALTOX>
0

> <ARCHEMICALS>
0

> <ATSDRLST>
0

> <BISPHENOLS>
0

> <OEHHA>
0

> <CERAPP>
0

> <FUNNAMES>
0

> <KWRSJERPS>
0

> <EPACONS>
0

> <IRIS>
0

> <EPAHFR>
0

> <EUCOSMETICS>
0

> <FRENCHLIST>
0

> <HEROMAP>
0

> <ITNANTIBIOTIC>
0

> <KEMIMARKET>
0

> <MASSBANKREF>
0

> <MASSBANKEUSP>
0

> <NEMILIST>
0

> <NATADB>
0

> <NIOSHIDLH>
0

> <NIOSHICSC>
0

> <NIOSHNPG>
0

> <NIOSHSKIN>
0

> <NORMANCT15>
0

> <SFISHFLUORO>
0

> <NORMANPRI>
0

> <NORMANEWS>
0

> <PFASTRIER>
0

> <SWISSPHARMA>
0

> <PPRTVWEB>
0

> <STOCKHOLM>
0

> <STOFFIDENT>
0

> <SCDM>
0

> <EAWAGSURF>
0

> <SWISSPEST>
0

> <TOX21SL>
0

> <TOXCAST>
0

> <TOXCAST_E1K>
0

> <TOXCAST_PH1V2>
0

> <TOXCAST_PH2>
0

> <TOXCAST_PH3>
0

> <TOXCAST_PHASEI>
0

> <TOXCAST_PHASEII>
0

> <TOXCAST_PHASEIII>
0

> <TRIRELEASE>
0

> <TSCASURF>
0

> <UJIBADE>
0

> <ATHENSSUS>
0

> <UATHTARGETS>
0

$$$$

  Mrv1533009301517302D          

  0  0  0     0  0            999 V3000
M  V30 BEGIN CTAB
M  V30 COUNTS 12 12 0 0 0
M  V30 BEGIN ATOM
M  V30 1 C 0 6.16 0 0
M  V30 2 C 0 4.62 0 0
M  V30 3 C 1.3337 3.85 0 0
M  V30 4 C 1.3337 2.31 0 0
M  V30 5 C 2.6673 1.54 0 0
M  V30 6 C 2.6673 0 0 0
M  V30 7 C 1.3337 -0.77 0 0
M  V30 8 C 0 0 0 0
M  V30 9 C 0 1.54 0 0
M  V30 10 C 1.3337 -2.31 0 0
M  V30 11 N 0 -3.08 0 0
M  V30 12 N 0 -4.62 0 0
M  V30 END ATOM
M  V30 BEGIN BOND
M  V30 1 1 1 2
M  V30 2 1 2 3
M  V30 3 1 3 4
M  V30 4 2 4 5
M  V30 5 1 5 6
M  V30 6 2 6 7
M  V30 7 1 7 8
M  V30 8 2 8 9
M  V30 9 1 4 9
M  V30 10 1 7 10
M  V30 11 2 10 11
M  V30 12 1 11 12 CFG=2
M  V30 END BOND
M  V30 END CTAB
M  END

> <INPUT>
C10H14N2

> <FOUND_BY>
MS Ready Formula

> <DTXCID_INDIVIDUAL_COMPONENT>
DTXCID3048865

> <FORMULA_INDIVIDUAL_COMPONENT>
C10H14N2

> <SMILES_INDIVIDUAL_COMPONENT>
CCCC1=CC=C(C=NN)C=C1

> <MAPPED_DTXSID>
DTXSID3072957

> <PREFERRED_NAME_DTXSID>
Benzaldehyde, 4-propyl-, hydrazone

> <CASRN_DTXSID>
93480-03-6

> <FORMULA_MAPPED_DTXSID>
C10H14N2

> <SMILES_MAPPED_DTXSID>
CCCC1=CC=C(C=NN)C=C1

> <MS_READY_SMILES>
CCCC1=CC=C(CN=N)C=C1

> <INCHI_STRING_DTXCID>
InChI=1S/C10H14N2/c1-2-3-9-4-6-10(7-5-9)8-12-11/h4-8H,2-3,11H2,1H3

> <INCHIKEY_DTXCID>
IAWNEZMBOUNFJI-UHFFFAOYSA-N

> <MONOISOTOPIC_MASS_DTXCID>
162.115698459

> <EXPOCAST_MEDIAN_EXPOSURE_PREDICTION_MG/KG-BW/DAY>
-

> <EXPOCAST>
0

> <NHANES>
0

> <DATA_SOURCES>
5

> <TOXVAL_DATA>
0

> <TOXCAST_PERCENT_ACTIVE>
-

> <TOXCAST_NUMBER_OF_ASSAYS/TOTAL>
-

> <NUMBER_OF_PUBMED_ARTICLES>
-

> <PUBCHEM_DATA_SOURCES>
7

> <CPDAT_COUNT>
-

> <ATMOSPHERIC_HYDROXYLATION_RATE_(AOH)_CM3/MOLECULE*SEC_OPERA_PRED>
1.99587e-11

> <BIOCONCENTRATION_FACTOR_OPERA_PRED>
6.31425

> <BIODEGRADATION_HALF_LIFE_DAYS_DAYS_OPERA_PRED>
3.52774

> <BOILING_POINT_DEGC_OPERA_PRED>
274.383

> <HENRYS_LAW_ATM-M3/MOLE_OPERA_PRED>
8.90758e-07

> <OPERA_KM_DAYS_OPERA_PRED>
0.194153

> <OCTANOL_AIR_PARTITION_COEFF_LOGKOA_OPERA_PRED>
6.1596

> <SOIL_ADSORPTION_COEFFICIENT_KOC_L/KG_OPERA_PRED>
139.307

> <OCTANOL_WATER_PARTITION_LOGP_OPERA_PRED>
2.39398

> <MELTING_POINT_DEGC_OPERA_PRED>
114.139

> <VAPOR_PRESSURE_MMHG_OPERA_PRED>
0.0191737

> <WATER_SOLUBILITY_MOL/L_OPERA_PRED>
0.00316293

> <TEST_BCF_TEST_PRED>
-

> <BOILING_POINT_DEGC_TEST_PRED>
269.211

> <DENSITY_G/CM^3_TEST_PRED>
1.1

> <FLASH_POINT_DEGC_TEST_PRED>
165.806

> <MELTING_POINT_DEGC_TEST_PRED>
73.38

> <SURFACE_TENSION_DYN/CM_TEST_PRED>
-

> <THERMAL_CONDUCTIVITY_MW/(M*K)_TEST_PRED>
-

> <VISCOSITY_CP_CP_TEST_PRED>
-

> <VAPOR_PRESSURE_MMHG_TEST_PRED>
-

> <WATER_SOLUBILITY_MOL/L_TEST_PRED>
0.011246

> <AEGLVALUES>
0

> <ALGALTOX>
0

> <ARCHEMICALS>
0

> <ATSDRLST>
0

> <BISPHENOLS>
0

> <OEHHA>
0

> <CERAPP>
0

> <FUNNAMES>
0

> <KWRSJERPS>
0

> <EPACONS>
0

> <IRIS>
0

> <EPAHFR>
0

> <EUCOSMETICS>
0

> <FRENCHLIST>
0

> <HEROMAP>
0

> <ITNANTIBIOTIC>
0

> <KEMIMARKET>
0

> <MASSBANKREF>
0

> <MASSBANKEUSP>
0

> <NEMILIST>
0

> <NATADB>
0

> <NIOSHIDLH>
0

> <NIOSHICSC>
0

> <NIOSHNPG>
0

> <NIOSHSKIN>
0

> <NORMANCT15>
0

> <SFISHFLUORO>
0

> <NORMANPRI>
0

> <NORMANEWS>
0

> <PFASTRIER>
0

> <SWISSPHARMA>
0

> <PPRTVWEB>
0

> <STOCKHOLM>
0

> <STOFFIDENT>
0

> <SCDM>
0

> <EAWAGSURF>
0

> <SWISSPEST>
0

> <TOX21SL>
0

> <TOXCAST>
0

> <TOXCAST_E1K>
0

> <TOXCAST_PH1V2>
0

> <TOXCAST_PH2>
0

> <TOXCAST_PH3>
0

> <TOXCAST_PHASEI>
0

> <TOXCAST_PHASEII>
0

> <TOXCAST_PHASEIII>
0

> <TRIRELEASE>
0

> <TSCASURF>
0

> <UJIBADE>
0

> <ATHENSSUS>
0

> <UATHTARGETS>
0

$$$$

  Mrv1611108211713492D          

  0  0  0     0  0            999 V3000
M  V30 BEGIN CTAB
M  V30 COUNTS 12 13 0 0 0
M  V30 BEGIN ATOM
M  V30 1 N 5.3343 -2.0521 0 0
M  V30 2 C 4.0583 -2.9401 0 0
M  V30 3 C 2.6507 -2.3152 0 0
M  V30 4 N 1.3352 0 0 0
M  V30 5 C 2.6507 -0.7762 0 0
M  V30 6 C 6.5774 -2.927 0 0
M  V30 7 C 5.3343 -0.4801 0 0
M  V30 8 C 4.5581 -4.4069 0 0
M  V30 9 C 6.1301 -4.4069 0 0
M  V30 10 C 1.3352 -3.0717 0 0
M  V30 11 C 0 -0.7565 0 0
M  V30 12 C 0 -2.3152 0 0
M  V30 END ATOM
M  V30 BEGIN BOND
M  V30 1 1 1 2
M  V30 2 1 1 6
M  V30 3 1 1 7
M  V30 4 1 2 3
M  V30 5 1 2 8
M  V30 6 2 3 5
M  V30 7 1 3 10
M  V30 8 1 4 5
M  V30 9 2 4 11
M  V30 10 1 6 9
M  V30 11 1 8 9
M  V30 12 2 10 12
M  V30 13 1 11 12
M  V30 END BOND
M  V30 END CTAB
M  END

> <INPUT>
C10H14N2

> <FOUND_BY>
MS Ready Formula

> <DTXCID_INDIVIDUAL_COMPONENT>
DTXCID9028128

> <FORMULA_INDIVIDUAL_COMPONENT>
C10H14N2

> <SMILES_INDIVIDUAL_COMPONENT>
CN1CCCC1C1=CN=CC=C1

> <MAPPED_DTXSID>
DTXSID20237235

> <PREFERRED_NAME_DTXSID>
(S)-Nicotine dicitrate

> <CASRN_DTXSID>
88660-51-9

> <FORMULA_MAPPED_DTXSID>
C22H30N2O14

> <SMILES_MAPPED_DTXSID>
CN1CCC[C@H]1C1=CN=CC=C1.OC(=O)CC(O)(CC(O)=O)C(O)=O.OC(=O)CC(O)(CC(O)=O)C(O)=O

> <MS_READY_SMILES>
OC(=O)CC(O)(CC(O)=O)C(O)=O,CN1CCCC1C1=CN=CC=C1

> <INCHI_STRING_DTXCID>
InChI=1S/C10H14N2/c1-12-7-3-5-10(12)9-4-2-6-11-8-9/h2,4,6,8,10H,3,5,7H2,1H3

> <INCHIKEY_DTXCID>
SNICXCGAKADSCV-UHFFFAOYSA-N

> <MONOISOTOPIC_MASS_DTXCID>
162.115698459

> <EXPOCAST_MEDIAN_EXPOSURE_PREDICTION_MG/KG-BW/DAY>
-

> <EXPOCAST>
0

> <NHANES>
0

> <DATA_SOURCES>
5

> <TOXVAL_DATA>
0

> <TOXCAST_PERCENT_ACTIVE>
-

> <TOXCAST_NUMBER_OF_ASSAYS/TOTAL>
-

> <NUMBER_OF_PUBMED_ARTICLES>
-

> <PUBCHEM_DATA_SOURCES>
4

> <CPDAT_COUNT>
1

> <ATMOSPHERIC_HYDROXYLATION_RATE_(AOH)_CM3/MOLECULE*SEC_OPERA_PRED>
-

> <BIOCONCENTRATION_FACTOR_OPERA_PRED>
-

> <BIODEGRADATION_HALF_LIFE_DAYS_DAYS_OPERA_PRED>
-

> <BOILING_POINT_DEGC_OPERA_PRED>
-

> <HENRYS_LAW_ATM-M3/MOLE_OPERA_PRED>
-

> <OPERA_KM_DAYS_OPERA_PRED>
-

> <OCTANOL_AIR_PARTITION_COEFF_LOGKOA_OPERA_PRED>
-

> <SOIL_ADSORPTION_COEFFICIENT_KOC_L/KG_OPERA_PRED>
-

> <OCTANOL_WATER_PARTITION_LOGP_OPERA_PRED>
-

> <MELTING_POINT_DEGC_OPERA_PRED>
-

> <VAPOR_PRESSURE_MMHG_OPERA_PRED>
-

> <WATER_SOLUBILITY_MOL/L_OPERA_PRED>
-

> <TEST_BCF_TEST_PRED>
-

> <BOILING_POINT_DEGC_TEST_PRED>
-

> <DENSITY_G/CM^3_TEST_PRED>
-

> <FLASH_POINT_DEGC_TEST_PRED>
-

> <MELTING_POINT_DEGC_TEST_PRED>
-

> <SURFACE_TENSION_DYN/CM_TEST_PRED>
-

> <THERMAL_CONDUCTIVITY_MW/(M*K)_TEST_PRED>
-

> <VISCOSITY_CP_CP_TEST_PRED>
-

> <VAPOR_PRESSURE_MMHG_TEST_PRED>
-

> <WATER_SOLUBILITY_MOL/L_TEST_PRED>
-

> <AEGLVALUES>
0

> <ALGALTOX>
0

> <ARCHEMICALS>
0

> <ATSDRLST>
0

> <BISPHENOLS>
0

> <OEHHA>
0

> <CERAPP>
0

> <FUNNAMES>
0

> <KWRSJERPS>
0

> <EPACONS>
0

> <IRIS>
0

> <EPAHFR>
0

> <EUCOSMETICS>
0

> <FRENCHLIST>
0

> <HEROMAP>
0

> <ITNANTIBIOTIC>
0

> <KEMIMARKET>
1

> <MASSBANKREF>
0

> <MASSBANKEUSP>
0

> <NEMILIST>
0

> <NATADB>
0

> <NIOSHIDLH>
0

> <NIOSHICSC>
0

> <NIOSHNPG>
0

> <NIOSHSKIN>
0

> <NORMANCT15>
0

> <SFISHFLUORO>
0

> <NORMANPRI>
0

> <NORMANEWS>
0

> <PFASTRIER>
0

> <SWISSPHARMA>
0

> <PPRTVWEB>
0

> <STOCKHOLM>
0

> <STOFFIDENT>
0

> <SCDM>
0

> <EAWAGSURF>
0

> <SWISSPEST>
0

> <TOX21SL>
0

> <TOXCAST>
0

> <TOXCAST_E1K>
0

> <TOXCAST_PH1V2>
0

> <TOXCAST_PH2>
0

> <TOXCAST_PH3>
0

> <TOXCAST_PHASEI>
0

> <TOXCAST_PHASEII>
0

> <TOXCAST_PHASEIII>
0

> <TRIRELEASE>
0

> <TSCASURF>
0

> <UJIBADE>
0

> <ATHENSSUS>
0

> <UATHTARGETS>
0

$$$$

  Mrv1611108211713492D          

  0  0  0     0  0            999 V3000
M  V30 BEGIN CTAB
M  V30 COUNTS 12 13 0 0 0
M  V30 BEGIN ATOM
M  V30 1 N 5.3343 -2.0521 0 0
M  V30 2 C 4.0583 -2.9401 0 0
M  V30 3 C 2.6507 -2.3152 0 0
M  V30 4 N 1.3352 0 0 0
M  V30 5 C 2.6507 -0.7762 0 0
M  V30 6 C 6.5774 -2.927 0 0
M  V30 7 C 5.3343 -0.4801 0 0
M  V30 8 C 4.5581 -4.4069 0 0
M  V30 9 C 6.1301 -4.4069 0 0
M  V30 10 C 1.3352 -3.0717 0 0
M  V30 11 C 0 -0.7565 0 0
M  V30 12 C 0 -2.3152 0 0
M  V30 END ATOM
M  V30 BEGIN BOND
M  V30 1 1 1 2
M  V30 2 1 1 6
M  V30 3 1 1 7
M  V30 4 1 2 3
M  V30 5 1 2 8
M  V30 6 2 3 5
M  V30 7 1 3 10
M  V30 8 1 4 5
M  V30 9 2 4 11
M  V30 10 1 6 9
M  V30 11 1 8 9
M  V30 12 2 10 12
M  V30 13 1 11 12
M  V30 END BOND
M  V30 END CTAB
M  END

> <INPUT>
C10H14N2

> <FOUND_BY>
MS Ready Formula

> <DTXCID_INDIVIDUAL_COMPONENT>
DTXCID9028128

> <FORMULA_INDIVIDUAL_COMPONENT>
C10H14N2

> <SMILES_INDIVIDUAL_COMPONENT>
CN1CCCC1C1=CN=CC=C1

> <MAPPED_DTXSID>
DTXSID30884214

> <PREFERRED_NAME_DTXSID>
Pyridine, 3-[(2S)-1-methyl-2-pyrrolidinyl]-, hydrochloride (1:2)

> <CASRN_DTXSID>
6019-02-9

> <FORMULA_MAPPED_DTXSID>
C10H16Cl2N2

> <SMILES_MAPPED_DTXSID>
Cl.Cl.CN1CCC[C@H]1C1=CN=CC=C1

> <MS_READY_SMILES>
CN1CCCC1C1=CN=CC=C1

> <INCHI_STRING_DTXCID>
InChI=1S/C10H14N2/c1-12-7-3-5-10(12)9-4-2-6-11-8-9/h2,4,6,8,10H,3,5,7H2,1H3

> <INCHIKEY_DTXCID>
SNICXCGAKADSCV-UHFFFAOYSA-N

> <MONOISOTOPIC_MASS_DTXCID>
162.115698459

> <EXPOCAST_MEDIAN_EXPOSURE_PREDICTION_MG/KG-BW/DAY>
-

> <EXPOCAST>
0

> <NHANES>
0

> <DATA_SOURCES>
5

> <TOXVAL_DATA>
0

> <TOXCAST_PERCENT_ACTIVE>
-

> <TOXCAST_NUMBER_OF_ASSAYS/TOTAL>
-

> <NUMBER_OF_PUBMED_ARTICLES>
-

> <PUBCHEM_DATA_SOURCES>
-

> <CPDAT_COUNT>
1

> <ATMOSPHERIC_HYDROXYLATION_RATE_(AOH)_CM3/MOLECULE*SEC_OPERA_PRED>
4.3164e-11

> <BIOCONCENTRATION_FACTOR_OPERA_PRED>
6.524

> <BIODEGRADATION_HALF_LIFE_DAYS_DAYS_OPERA_PRED>
3.36018

> <BOILING_POINT_DEGC_OPERA_PRED>
253.418

> <HENRYS_LAW_ATM-M3/MOLE_OPERA_PRED>
6.65993e-06

> <OPERA_KM_DAYS_OPERA_PRED>
5.93649

> <OCTANOL_AIR_PARTITION_COEFF_LOGKOA_OPERA_PRED>
5.80576

> <SOIL_ADSORPTION_COEFFICIENT_KOC_L/KG_OPERA_PRED>
110.746

> <OCTANOL_WATER_PARTITION_LOGP_OPERA_PRED>
1.17766

> <MELTING_POINT_DEGC_OPERA_PRED>
-19.0813

> <VAPOR_PRESSURE_MMHG_OPERA_PRED>
0.013088

> <WATER_SOLUBILITY_MOL/L_OPERA_PRED>
4.51047

> <TEST_BCF_TEST_PRED>
-

> <BOILING_POINT_DEGC_TEST_PRED>
-

> <DENSITY_G/CM^3_TEST_PRED>
-

> <FLASH_POINT_DEGC_TEST_PRED>
-

> <MELTING_POINT_DEGC_TEST_PRED>
-

> <SURFACE_TENSION_DYN/CM_TEST_PRED>
-

> <THERMAL_CONDUCTIVITY_MW/(M*K)_TEST_PRED>
-

> <VISCOSITY_CP_CP_TEST_PRED>
-

> <VAPOR_PRESSURE_MMHG_TEST_PRED>
-

> <WATER_SOLUBILITY_MOL/L_TEST_PRED>
-

> <AEGLVALUES>
0

> <ALGALTOX>
0

> <ARCHEMICALS>
0

> <ATSDRLST>
0

> <BISPHENOLS>
0

> <OEHHA>
0

> <CERAPP>
0

> <FUNNAMES>
0

> <KWRSJERPS>
0

> <EPACONS>
0

> <IRIS>
0

> <EPAHFR>
0

> <EUCOSMETICS>
0

> <FRENCHLIST>
0

> <HEROMAP>
0

> <ITNANTIBIOTIC>
0

> <KEMIMARKET>
0

> <MASSBANKREF>
0

> <MASSBANKEUSP>
0

> <NEMILIST>
0

> <NATADB>
0

> <NIOSHIDLH>
0

> <NIOSHICSC>
0

> <NIOSHNPG>
0

> <NIOSHSKIN>
0

> <NORMANCT15>
0

> <SFISHFLUORO>
0

> <NORMANPRI>
0

> <NORMANEWS>
0

> <PFASTRIER>
0

> <SWISSPHARMA>
0

> <PPRTVWEB>
0

> <STOCKHOLM>
0

> <STOFFIDENT>
0

> <SCDM>
0

> <EAWAGSURF>
0

> <SWISSPEST>
0

> <TOX21SL>
0

> <TOXCAST>
0

> <TOXCAST_E1K>
0

> <TOXCAST_PH1V2>
0

> <TOXCAST_PH2>
0

> <TOXCAST_PH3>
0

> <TOXCAST_PHASEI>
0

> <TOXCAST_PHASEII>
0

> <TOXCAST_PHASEIII>
0

> <TRIRELEASE>
0

> <TSCASURF>
0

> <UJIBADE>
0

> <ATHENSSUS>
0

> <UATHTARGETS>
0

$$$$
185782
  Mrv1611103081716072D          

  0  0  0     0  0            999 V3000
M  V30 BEGIN CTAB
M  V30 COUNTS 12 13 0 0 0
M  V30 BEGIN ATOM
M  V30 1 N -1.0703 -2.2636 0 0
M  V30 2 C 0.2634 -1.4936 0 0
M  V30 3 C 0.2634 0.0464 0 0
M  V30 4 C -1.0703 0.8164 0 0
M  V30 5 C -1.0703 2.3564 0 0
M  V30 6 C 0.2634 3.1264 0 0
M  V30 7 N 1.597 2.3564 0 0
M  V30 8 C 1.597 0.8164 0 0
M  V30 9 C 1.597 -2.2636 0 0
M  V30 10 C 1.597 -3.8036 0 0
M  V30 11 C 0.2634 -4.5736 0 0
M  V30 12 C -1.0703 -3.8036 0 0
M  V30 END ATOM
M  V30 BEGIN BOND
M  V30 1 1 1 2
M  V30 2 1 2 3
M  V30 3 2 3 4
M  V30 4 1 4 5
M  V30 5 2 5 6
M  V30 6 1 6 7
M  V30 7 2 7 8
M  V30 8 1 8 3
M  V30 9 1 2 9
M  V30 10 1 9 10
M  V30 11 1 10 11
M  V30 12 1 11 12
M  V30 13 1 12 1
M  V30 END BOND
M  V30 END CTAB
M  END

> <INPUT>
C10H14N2

> <FOUND_BY>
MS Ready Formula

> <DTXCID_INDIVIDUAL_COMPONENT>
DTXCID50202491

> <FORMULA_INDIVIDUAL_COMPONENT>
C10H14N2

> <SMILES_INDIVIDUAL_COMPONENT>
C1CCC(NC1)C1=CC=CN=C1

> <MAPPED_DTXSID>
DTXSID20185782

> <PREFERRED_NAME_DTXSID>
Anabasine dihydrochloride

> <CASRN_DTXSID>
31945-06-9

> <FORMULA_MAPPED_DTXSID>
C10H16Cl2N2

> <SMILES_MAPPED_DTXSID>
Cl.Cl.C1CC[C@H](NC1)C1=CN=CC=C1

> <MS_READY_SMILES>
C1CCC(NC1)C1=CC=CN=C1

> <INCHI_STRING_DTXCID>
InChI=1S/C10H14N2/c1-2-7-12-10(5-1)9-4-3-6-11-8-9/h3-4,6,8,10,12H,1-2,5,7H2

> <INCHIKEY_DTXCID>
MTXSIJUGVMTTMU-UHFFFAOYSA-N

> <MONOISOTOPIC_MASS_DTXCID>
162.115698459

> <EXPOCAST_MEDIAN_EXPOSURE_PREDICTION_MG/KG-BW/DAY>
-

> <EXPOCAST>
0

> <NHANES>
0

> <DATA_SOURCES>
4

> <TOXVAL_DATA>
0

> <TOXCAST_PERCENT_ACTIVE>
-

> <TOXCAST_NUMBER_OF_ASSAYS/TOTAL>
-

> <NUMBER_OF_PUBMED_ARTICLES>
-

> <PUBCHEM_DATA_SOURCES>
5

> <CPDAT_COUNT>
-

> <ATMOSPHERIC_HYDROXYLATION_RATE_(AOH)_CM3/MOLECULE*SEC_OPERA_PRED>
4.36897e-11

> <BIOCONCENTRATION_FACTOR_OPERA_PRED>
8.93408

> <BIODEGRADATION_HALF_LIFE_DAYS_DAYS_OPERA_PRED>
2.77408

> <BOILING_POINT_DEGC_OPERA_PRED>
280.593

> <HENRYS_LAW_ATM-M3/MOLE_OPERA_PRED>
2.85646e-07

> <OPERA_KM_DAYS_OPERA_PRED>
0.501872

> <OCTANOL_AIR_PARTITION_COEFF_LOGKOA_OPERA_PRED>
8.36352

> <SOIL_ADSORPTION_COEFFICIENT_KOC_L/KG_OPERA_PRED>
145.09

> <OCTANOL_WATER_PARTITION_LOGP_OPERA_PRED>
0.909452

> <MELTING_POINT_DEGC_OPERA_PRED>
52.303

> <VAPOR_PRESSURE_MMHG_OPERA_PRED>
0.011755

> <WATER_SOLUBILITY_MOL/L_OPERA_PRED>
1.66388

> <TEST_BCF_TEST_PRED>
8.20352

> <BOILING_POINT_DEGC_TEST_PRED>
267.022

> <DENSITY_G/CM^3_TEST_PRED>
1.036

> <FLASH_POINT_DEGC_TEST_PRED>
110.815

> <MELTING_POINT_DEGC_TEST_PRED>
22.708

> <SURFACE_TENSION_DYN/CM_TEST_PRED>
38.231

> <THERMAL_CONDUCTIVITY_MW/(M*K)_TEST_PRED>
151.208

> <VISCOSITY_CP_CP_TEST_PRED>
12.7644

> <VAPOR_PRESSURE_MMHG_TEST_PRED>
0.00864968

> <WATER_SOLUBILITY_MOL/L_TEST_PRED>
0.055335

> <AEGLVALUES>
0

> <ALGALTOX>
0

> <ARCHEMICALS>
0

> <ATSDRLST>
0

> <BISPHENOLS>
0

> <OEHHA>
0

> <CERAPP>
0

> <FUNNAMES>
0

> <KWRSJERPS>
0

> <EPACONS>
0

> <IRIS>
0

> <EPAHFR>
0

> <EUCOSMETICS>
0

> <FRENCHLIST>
0

> <HEROMAP>
0

> <ITNANTIBIOTIC>
0

> <KEMIMARKET>
0

> <MASSBANKREF>
0

> <MASSBANKEUSP>
0

> <NEMILIST>
0

> <NATADB>
0

> <NIOSHIDLH>
0

> <NIOSHICSC>
0

> <NIOSHNPG>
0

> <NIOSHSKIN>
0

> <NORMANCT15>
0

> <SFISHFLUORO>
0

> <NORMANPRI>
0

> <NORMANEWS>
0

> <PFASTRIER>
0

> <SWISSPHARMA>
0

> <PPRTVWEB>
0

> <STOCKHOLM>
0

> <STOFFIDENT>
0

> <SCDM>
0

> <EAWAGSURF>
0

> <SWISSPEST>
0

> <TOX21SL>
0

> <TOXCAST>
0

> <TOXCAST_E1K>
0

> <TOXCAST_PH1V2>
0

> <TOXCAST_PH2>
0

> <TOXCAST_PH3>
0

> <TOXCAST_PHASEI>
0

> <TOXCAST_PHASEII>
0

> <TOXCAST_PHASEIII>
0

> <TRIRELEASE>
0

> <TSCASURF>
0

> <UJIBADE>
0

> <ATHENSSUS>
0

> <UATHTARGETS>
0

$$$$

  Mrv1533009301517452D          

  0  0  0     0  0            999 V3000
M  V30 BEGIN CTAB
M  V30 COUNTS 12 11 0 0 0
M  V30 BEGIN ATOM
M  V30 1 N 16.4171 -0.3851 0 0
M  V30 2 N 3.08 -0.3851 0 0
M  V30 3 C 11.0824 1.1551 0 0
M  V30 4 C 8.4149 1.1551 0 0
M  V30 5 C 9.7485 0.3851 0 0
M  V30 6 C 12.4161 0.3851 0 0
M  V30 7 C 7.0812 0.3851 0 0
M  V30 8 C 13.7497 1.1551 0 0
M  V30 9 C 5.7475 1.1551 0 0
M  V30 10 C 9.7485 -1.1551 0 0
M  V30 11 C 15.0834 0.3851 0 0
M  V30 12 C 4.4137 0.3851 0 0
M  V30 END ATOM
M  V30 BEGIN BOND
M  V30 1 3 1 11
M  V30 2 3 2 12
M  V30 3 1 3 5
M  V30 4 1 3 6
M  V30 5 1 4 5
M  V30 6 1 4 7
M  V30 7 2 5 10
M  V30 8 1 6 8
M  V30 9 1 7 9
M  V30 10 1 8 11
M  V30 11 1 9 12
M  V30 END BOND
M  V30 END CTAB
M  END

> <INPUT>
C10H14N2

> <FOUND_BY>
MS Ready Formula

> <DTXCID_INDIVIDUAL_COMPONENT>
DTXCID40121122

> <FORMULA_INDIVIDUAL_COMPONENT>
C10H14N2

> <SMILES_INDIVIDUAL_COMPONENT>
C=C(CCCC#N)CCCC#N

> <MAPPED_DTXSID>
DTXSID80198631

> <PREFERRED_NAME_DTXSID>
5-Methylenenonanedinitrile

> <CASRN_DTXSID>
50592-61-5

> <FORMULA_MAPPED_DTXSID>
C10H14N2

> <SMILES_MAPPED_DTXSID>
C=C(CCCC#N)CCCC#N

> <MS_READY_SMILES>
C=C(CCCC#N)CCCC#N

> <INCHI_STRING_DTXCID>
InChI=1S/C10H14N2/c1-10(6-2-4-8-11)7-3-5-9-12/h1-7H2

> <INCHIKEY_DTXCID>
KKWHJFKPVHVBSZ-UHFFFAOYSA-N

> <MONOISOTOPIC_MASS_DTXCID>
162.115698459

> <EXPOCAST_MEDIAN_EXPOSURE_PREDICTION_MG/KG-BW/DAY>
-

> <EXPOCAST>
0

> <NHANES>
0

> <DATA_SOURCES>
4

> <TOXVAL_DATA>
0

> <TOXCAST_PERCENT_ACTIVE>
-

> <TOXCAST_NUMBER_OF_ASSAYS/TOTAL>
-

> <NUMBER_OF_PUBMED_ARTICLES>
-

> <PUBCHEM_DATA_SOURCES>
17

> <CPDAT_COUNT>
-

> <ATMOSPHERIC_HYDROXYLATION_RATE_(AOH)_CM3/MOLECULE*SEC_OPERA_PRED>
1.25144e-10

> <BIOCONCENTRATION_FACTOR_OPERA_PRED>
10.1831

> <BIODEGRADATION_HALF_LIFE_DAYS_DAYS_OPERA_PRED>
4.32794

> <BOILING_POINT_DEGC_OPERA_PRED>
284.372

> <HENRYS_LAW_ATM-M3/MOLE_OPERA_PRED>
2.74052e-08

> <OPERA_KM_DAYS_OPERA_PRED>
2.15781

> <OCTANOL_AIR_PARTITION_COEFF_LOGKOA_OPERA_PRED>
5.79279

> <SOIL_ADSORPTION_COEFFICIENT_KOC_L/KG_OPERA_PRED>
331.95

> <OCTANOL_WATER_PARTITION_LOGP_OPERA_PRED>
0.99307

> <MELTING_POINT_DEGC_OPERA_PRED>
19.9177

> <VAPOR_PRESSURE_MMHG_OPERA_PRED>
0.0116149

> <WATER_SOLUBILITY_MOL/L_OPERA_PRED>
0.0817299

> <TEST_BCF_TEST_PRED>
12.8825

> <BOILING_POINT_DEGC_TEST_PRED>
275.999

> <DENSITY_G/CM^3_TEST_PRED>
0.923

> <FLASH_POINT_DEGC_TEST_PRED>
124.14

> <MELTING_POINT_DEGC_TEST_PRED>
6.247

> <SURFACE_TENSION_DYN/CM_TEST_PRED>
37.808

> <THERMAL_CONDUCTIVITY_MW/(M*K)_TEST_PRED>
-

> <VISCOSITY_CP_CP_TEST_PRED>
2.24388

> <VAPOR_PRESSURE_MMHG_TEST_PRED>
0.0084918

> <WATER_SOLUBILITY_MOL/L_TEST_PRED>
0.00912011

> <AEGLVALUES>
0

> <ALGALTOX>
0

> <ARCHEMICALS>
0

> <ATSDRLST>
0

> <BISPHENOLS>
0

> <OEHHA>
0

> <CERAPP>
0

> <FUNNAMES>
0

> <KWRSJERPS>
0

> <EPACONS>
0

> <IRIS>
0

> <EPAHFR>
0

> <EUCOSMETICS>
0

> <FRENCHLIST>
0

> <HEROMAP>
0

> <ITNANTIBIOTIC>
0

> <KEMIMARKET>
1

> <MASSBANKREF>
0

> <MASSBANKEUSP>
0

> <NEMILIST>
0

> <NATADB>
0

> <NIOSHIDLH>
0

> <NIOSHICSC>
0

> <NIOSHNPG>
0

> <NIOSHSKIN>
0

> <NORMANCT15>
0

> <SFISHFLUORO>
0

> <NORMANPRI>
0

> <NORMANEWS>
0

> <PFASTRIER>
0

> <SWISSPHARMA>
0

> <PPRTVWEB>
0

> <STOCKHOLM>
0

> <STOFFIDENT>
0

> <SCDM>
0

> <EAWAGSURF>
0

> <SWISSPEST>
0

> <TOX21SL>
0

> <TOXCAST>
0

> <TOXCAST_E1K>
0

> <TOXCAST_PH1V2>
0

> <TOXCAST_PH2>
0

> <TOXCAST_PH3>
0

> <TOXCAST_PHASEI>
0

> <TOXCAST_PHASEII>
0

> <TOXCAST_PHASEIII>
0

> <TRIRELEASE>
0

> <TSCASURF>
0

> <UJIBADE>
0

> <ATHENSSUS>
0

> <UATHTARGETS>
0

$$$$

  Mrv1533009301517502D          

  0  0  0     0  0            999 V3000
M  V30 BEGIN CTAB
M  V30 COUNTS 12 13 0 0 0
M  V30 BEGIN ATOM
M  V30 1 N 7.1241 -1.5934 0 0
M  V30 2 N 7.1241 1.5934 0 0
M  V30 3 C 5.7475 -0.77 0 0
M  V30 4 C 5.7475 0.77 0 0
M  V30 5 C 8.5197 -0.8021 0 0
M  V30 6 C 8.5197 0.8021 0 0
M  V30 7 C 4.4137 -1.54 0 0
M  V30 8 C 4.4137 1.54 0 0
M  V30 9 C 3.08 -0.77 0 0
M  V30 10 C 3.08 0.77 0 0
M  V30 11 C 4.4137 -3.08 0 0
M  V30 12 C 4.4137 3.08 0 0
M  V30 END ATOM
M  V30 BEGIN BOND
M  V30 1 1 1 3
M  V30 2 1 1 5
M  V30 3 1 2 4
M  V30 4 1 2 6
M  V30 5 1 3 4
M  V30 6 2 3 7
M  V30 7 2 4 8
M  V30 8 1 5 6
M  V30 9 1 7 9
M  V30 10 1 7 11
M  V30 11 1 8 10
M  V30 12 1 8 12
M  V30 13 2 9 10
M  V30 END BOND
M  V30 END CTAB
M  END

> <INPUT>
C10H14N2

> <FOUND_BY>
MS Ready Formula

> <DTXCID_INDIVIDUAL_COMPONENT>
DTXCID30138800

> <FORMULA_INDIVIDUAL_COMPONENT>
C10H14N2

> <SMILES_INDIVIDUAL_COMPONENT>
CC1=C2NCCNC2=C(C)C=C1

> <MAPPED_DTXSID>
DTXSID80216309

> <PREFERRED_NAME_DTXSID>
5,8-Dimethyl-1,2,3,4-tetrahydroquinoxaline

> <CASRN_DTXSID>
66102-39-4

> <FORMULA_MAPPED_DTXSID>
C10H14N2

> <SMILES_MAPPED_DTXSID>
CC1=C2NCCNC2=C(C)C=C1

> <MS_READY_SMILES>
CC1=C2NCCNC2=C(C)C=C1

> <INCHI_STRING_DTXCID>
InChI=1S/C10H14N2/c1-7-3-4-8(2)10-9(7)11-5-6-12-10/h3-4,11-12H,5-6H2,1-2H3

> <INCHIKEY_DTXCID>
DJVBBBRKTTVZCV-UHFFFAOYSA-N

> <MONOISOTOPIC_MASS_DTXCID>
162.115698459

> <EXPOCAST_MEDIAN_EXPOSURE_PREDICTION_MG/KG-BW/DAY>
-

> <EXPOCAST>
0

> <NHANES>
0

> <DATA_SOURCES>
4

> <TOXVAL_DATA>
0

> <TOXCAST_PERCENT_ACTIVE>
-

> <TOXCAST_NUMBER_OF_ASSAYS/TOTAL>
-

> <NUMBER_OF_PUBMED_ARTICLES>
-

> <PUBCHEM_DATA_SOURCES>
13

> <CPDAT_COUNT>
-

> <ATMOSPHERIC_HYDROXYLATION_RATE_(AOH)_CM3/MOLECULE*SEC_OPERA_PRED>
1.83259e-11

> <BIOCONCENTRATION_FACTOR_OPERA_PRED>
9.9626

> <BIODEGRADATION_HALF_LIFE_DAYS_DAYS_OPERA_PRED>
12.2706

> <BOILING_POINT_DEGC_OPERA_PRED>
266.272

> <HENRYS_LAW_ATM-M3/MOLE_OPERA_PRED>
3.53265e-08

> <OPERA_KM_DAYS_OPERA_PRED>
0.163806

> <OCTANOL_AIR_PARTITION_COEFF_LOGKOA_OPERA_PRED>
8.0631

> <SOIL_ADSORPTION_COEFFICIENT_KOC_L/KG_OPERA_PRED>
302.184

> <OCTANOL_WATER_PARTITION_LOGP_OPERA_PRED>
1.71632

> <MELTING_POINT_DEGC_OPERA_PRED>
74.3922

> <VAPOR_PRESSURE_MMHG_OPERA_PRED>
0.000138118

> <WATER_SOLUBILITY_MOL/L_OPERA_PRED>
0.00605258

> <TEST_BCF_TEST_PRED>
9.95405

> <BOILING_POINT_DEGC_TEST_PRED>
283.874

> <DENSITY_G/CM^3_TEST_PRED>
1.043

> <FLASH_POINT_DEGC_TEST_PRED>
134.717

> <MELTING_POINT_DEGC_TEST_PRED>
107.166

> <SURFACE_TENSION_DYN/CM_TEST_PRED>
-

> <THERMAL_CONDUCTIVITY_MW/(M*K)_TEST_PRED>
161.122

> <VISCOSITY_CP_CP_TEST_PRED>
8.79023

> <VAPOR_PRESSURE_MMHG_TEST_PRED>
2.45471e-06

> <WATER_SOLUBILITY_MOL/L_TEST_PRED>
0.00328852

> <AEGLVALUES>
0

> <ALGALTOX>
0

> <ARCHEMICALS>
0

> <ATSDRLST>
0

> <BISPHENOLS>
0

> <OEHHA>
0

> <CERAPP>
0

> <FUNNAMES>
0

> <KWRSJERPS>
0

> <EPACONS>
0

> <IRIS>
0

> <EPAHFR>
0

> <EUCOSMETICS>
0

> <FRENCHLIST>
0

> <HEROMAP>
0

> <ITNANTIBIOTIC>
0

> <KEMIMARKET>
0

> <MASSBANKREF>
0

> <MASSBANKEUSP>
0

> <NEMILIST>
0

> <NATADB>
0

> <NIOSHIDLH>
0

> <NIOSHICSC>
0

> <NIOSHNPG>
0

> <NIOSHSKIN>
0

> <NORMANCT15>
0

> <SFISHFLUORO>
0

> <NORMANPRI>
0

> <NORMANEWS>
0

> <PFASTRIER>
0

> <SWISSPHARMA>
0

> <PPRTVWEB>
0

> <STOCKHOLM>
0

> <STOFFIDENT>
0

> <SCDM>
0

> <EAWAGSURF>
0

> <SWISSPEST>
0

> <TOX21SL>
0

> <TOXCAST>
0

> <TOXCAST_E1K>
0

> <TOXCAST_PH1V2>
0

> <TOXCAST_PH2>
0

> <TOXCAST_PH3>
0

> <TOXCAST_PHASEI>
0

> <TOXCAST_PHASEII>
0

> <TOXCAST_PHASEIII>
0

> <TRIRELEASE>
0

> <TSCASURF>
0

> <UJIBADE>
0

> <ATHENSSUS>
0

> <UATHTARGETS>
0

$$$$

  Mrv1533009301518272D          

  0  0  0     0  0            999 V3000
M  V30 BEGIN CTAB
M  V30 COUNTS 12 12 0 0 0
M  V30 BEGIN ATOM
M  V30 1 N 7.0812 3.08 0 0
M  V30 2 N 5.7475 0.77 0 0
M  V30 3 C 4.4137 -3.08 0 0
M  V30 4 C 5.7475 -0.77 0 0
M  V30 5 C 4.4137 -1.54 0 0
M  V30 6 C 5.7475 -3.85 0 0
M  V30 7 C 7.0812 -1.54 0 0
M  V30 8 C 7.0812 -3.08 0 0
M  V30 9 C 3.08 -3.85 0 0
M  V30 10 C 7.0812 1.54 0 0
M  V30 11 C 8.4149 3.85 0 0
M  V30 12 C 5.7475 3.85 0 0
M  V30 END ATOM
M  V30 BEGIN BOND
M  V30 1 1 1 10
M  V30 2 1 1 11
M  V30 3 1 1 12
M  V30 4 1 2 4
M  V30 5 2 2 10
M  V30 6 2 3 5
M  V30 7 1 3 6
M  V30 8 1 3 9
M  V30 9 1 4 5
M  V30 10 2 4 7
M  V30 11 2 6 8
M  V30 12 1 7 8
M  V30 END BOND
M  V30 END CTAB
M  END

> <INPUT>
C10H14N2

> <FOUND_BY>
MS Ready Formula

> <DTXCID_INDIVIDUAL_COMPONENT>
DTXCID00286307

> <FORMULA_INDIVIDUAL_COMPONENT>
C10H14N2

> <SMILES_INDIVIDUAL_COMPONENT>
CN(C)\C=N\C1=CC=CC(C)=C1

> <MAPPED_DTXSID>
DTXSID50335218

> <PREFERRED_NAME_DTXSID>
Formamidine, N,N-dimethyl-N'-m-tolyl-

> <CASRN_DTXSID>
2305-75-1

> <FORMULA_MAPPED_DTXSID>
C10H14N2

> <SMILES_MAPPED_DTXSID>
CN(C)\C=N\C1=CC=CC(C)=C1

> <MS_READY_SMILES>
CN(C)C=NC1=CC=CC(C)=C1

> <INCHI_STRING_DTXCID>
InChI=1S/C10H14N2/c1-9-5-4-6-10(7-9)11-8-12(2)3/h4-8H,1-3H3/b11-8+

> <INCHIKEY_DTXCID>
NCXQXIRXTWIUDZ-DHZHZOJOSA-N

> <MONOISOTOPIC_MASS_DTXCID>
162.115698459

> <EXPOCAST_MEDIAN_EXPOSURE_PREDICTION_MG/KG-BW/DAY>
-

> <EXPOCAST>
0

> <NHANES>
0

> <DATA_SOURCES>
4

> <TOXVAL_DATA>
0

> <TOXCAST_PERCENT_ACTIVE>
-

> <TOXCAST_NUMBER_OF_ASSAYS/TOTAL>
-

> <NUMBER_OF_PUBMED_ARTICLES>
-

> <PUBCHEM_DATA_SOURCES>
13

> <CPDAT_COUNT>
-

> <ATMOSPHERIC_HYDROXYLATION_RATE_(AOH)_CM3/MOLECULE*SEC_OPERA_PRED>
3.55187e-11

> <BIOCONCENTRATION_FACTOR_OPERA_PRED>
6.67616

> <BIODEGRADATION_HALF_LIFE_DAYS_DAYS_OPERA_PRED>
4.92293

> <BOILING_POINT_DEGC_OPERA_PRED>
220.881

> <HENRYS_LAW_ATM-M3/MOLE_OPERA_PRED>
9.42928e-06

> <OPERA_KM_DAYS_OPERA_PRED>
1.90584

> <OCTANOL_AIR_PARTITION_COEFF_LOGKOA_OPERA_PRED>
4.45184

> <SOIL_ADSORPTION_COEFFICIENT_KOC_L/KG_OPERA_PRED>
64.2264

> <OCTANOL_WATER_PARTITION_LOGP_OPERA_PRED>
1.70936

> <MELTING_POINT_DEGC_OPERA_PRED>
48.3824

> <VAPOR_PRESSURE_MMHG_OPERA_PRED>
0.00573703

> <WATER_SOLUBILITY_MOL/L_OPERA_PRED>
0.000643017

> <TEST_BCF_TEST_PRED>
17.5388

> <BOILING_POINT_DEGC_TEST_PRED>
-

> <DENSITY_G/CM^3_TEST_PRED>
1.121

> <FLASH_POINT_DEGC_TEST_PRED>
113.162

> <MELTING_POINT_DEGC_TEST_PRED>
77.024

> <SURFACE_TENSION_DYN/CM_TEST_PRED>
-

> <THERMAL_CONDUCTIVITY_MW/(M*K)_TEST_PRED>
-

> <VISCOSITY_CP_CP_TEST_PRED>
-

> <VAPOR_PRESSURE_MMHG_TEST_PRED>
-

> <WATER_SOLUBILITY_MOL/L_TEST_PRED>
0.00862979

> <AEGLVALUES>
0

> <ALGALTOX>
0

> <ARCHEMICALS>
0

> <ATSDRLST>
0

> <BISPHENOLS>
0

> <OEHHA>
0

> <CERAPP>
0

> <FUNNAMES>
0

> <KWRSJERPS>
0

> <EPACONS>
0

> <IRIS>
0

> <EPAHFR>
0

> <EUCOSMETICS>
0

> <FRENCHLIST>
0

> <HEROMAP>
0

> <ITNANTIBIOTIC>
0

> <KEMIMARKET>
0

> <MASSBANKREF>
0

> <MASSBANKEUSP>
0

> <NEMILIST>
0

> <NATADB>
0

> <NIOSHIDLH>
0

> <NIOSHICSC>
0

> <NIOSHNPG>
0

> <NIOSHSKIN>
0

> <NORMANCT15>
0

> <SFISHFLUORO>
0

> <NORMANPRI>
0

> <NORMANEWS>
0

> <PFASTRIER>
0

> <SWISSPHARMA>
0

> <PPRTVWEB>
0

> <STOCKHOLM>
0

> <STOFFIDENT>
0

> <SCDM>
0

> <EAWAGSURF>
0

> <SWISSPEST>
0

> <TOX21SL>
0

> <TOXCAST>
0

> <TOXCAST_E1K>
0

> <TOXCAST_PH1V2>
0

> <TOXCAST_PH2>
0

> <TOXCAST_PH3>
0

> <TOXCAST_PHASEI>
0

> <TOXCAST_PHASEII>
0

> <TOXCAST_PHASEIII>
0

> <TRIRELEASE>
0

> <TSCASURF>
0

> <UJIBADE>
0

> <ATHENSSUS>
0

> <UATHTARGETS>
0

$$$$

  Mrv1533009301517312D          

  0  0  0     0  0            999 V3000
M  V30 BEGIN CTAB
M  V30 COUNTS 12 13 0 0 0
M  V30 BEGIN ATOM
M  V30 1 N 8.4579 -1.5934 0 0
M  V30 2 N 8.4579 1.5934 0 0
M  V30 3 C 7.0812 -0.77 0 0
M  V30 4 C 7.0812 0.77 0 0
M  V30 5 C 9.8532 -0.8021 0 0
M  V30 6 C 9.8532 0.8021 0 0
M  V30 7 C 4.4137 -0.77 0 0
M  V30 8 C 4.4137 0.77 0 0
M  V30 9 C 5.7475 -1.54 0 0
M  V30 10 C 5.7475 1.54 0 0
M  V30 11 C 3.08 -1.54 0 0
M  V30 12 C 3.08 1.54 0 0
M  V30 END ATOM
M  V30 BEGIN BOND
M  V30 1 1 1 3
M  V30 2 1 1 5
M  V30 3 1 2 4
M  V30 4 1 2 6
M  V30 5 2 3 4
M  V30 6 1 3 9
M  V30 7 1 4 10
M  V30 8 1 5 6
M  V30 9 1 7 8
M  V30 10 2 7 9
M  V30 11 1 7 11
M  V30 12 2 8 10
M  V30 13 1 8 12
M  V30 END BOND
M  V30 END CTAB
M  END

> <INPUT>
C10H14N2

> <FOUND_BY>
MS Ready Formula

> <DTXCID_INDIVIDUAL_COMPONENT>
DTXCID0069838

> <FORMULA_INDIVIDUAL_COMPONENT>
C10H14N2

> <SMILES_INDIVIDUAL_COMPONENT>
CC1=CC2=C(NCCN2)C=C1C

> <MAPPED_DTXSID>
DTXSID40147347

> <PREFERRED_NAME_DTXSID>
Quinoxaline, 1,2,3,4-tetrahydro-6,7-dimethyl-

> <CASRN_DTXSID>
10579-68-7

> <FORMULA_MAPPED_DTXSID>
C10H14N2

> <SMILES_MAPPED_DTXSID>
CC1=CC2=C(NCCN2)C=C1C

> <MS_READY_SMILES>
CC1=CC2=C(NCCN2)C=C1C

> <INCHI_STRING_DTXCID>
InChI=1S/C10H14N2/c1-7-5-9-10(6-8(7)2)12-4-3-11-9/h5-6,11-12H,3-4H2,1-2H3

> <INCHIKEY_DTXCID>
DPSZEBZGBCWUBN-UHFFFAOYSA-N

> <MONOISOTOPIC_MASS_DTXCID>
162.115698459

> <EXPOCAST_MEDIAN_EXPOSURE_PREDICTION_MG/KG-BW/DAY>
-

> <EXPOCAST>
0

> <NHANES>
0

> <DATA_SOURCES>
3

> <TOXVAL_DATA>
0

> <TOXCAST_PERCENT_ACTIVE>
-

> <TOXCAST_NUMBER_OF_ASSAYS/TOTAL>
-

> <NUMBER_OF_PUBMED_ARTICLES>
-

> <PUBCHEM_DATA_SOURCES>
21

> <CPDAT_COUNT>
-

> <ATMOSPHERIC_HYDROXYLATION_RATE_(AOH)_CM3/MOLECULE*SEC_OPERA_PRED>
1.84248e-11

> <BIOCONCENTRATION_FACTOR_OPERA_PRED>
5.86471

> <BIODEGRADATION_HALF_LIFE_DAYS_DAYS_OPERA_PRED>
13.5491

> <BOILING_POINT_DEGC_OPERA_PRED>
266.374

> <HENRYS_LAW_ATM-M3/MOLE_OPERA_PRED>
3.53388e-08

> <OPERA_KM_DAYS_OPERA_PRED>
0.16296

> <OCTANOL_AIR_PARTITION_COEFF_LOGKOA_OPERA_PRED>
8.0631

> <SOIL_ADSORPTION_COEFFICIENT_KOC_L/KG_OPERA_PRED>
108.362

> <OCTANOL_WATER_PARTITION_LOGP_OPERA_PRED>
1.3932

> <MELTING_POINT_DEGC_OPERA_PRED>
75.9239

> <VAPOR_PRESSURE_MMHG_OPERA_PRED>
9.45224e-05

> <WATER_SOLUBILITY_MOL/L_OPERA_PRED>
0.00297916

> <TEST_BCF_TEST_PRED>
8.87156

> <BOILING_POINT_DEGC_TEST_PRED>
281.787

> <DENSITY_G/CM^3_TEST_PRED>
1.044

> <FLASH_POINT_DEGC_TEST_PRED>
133.549

> <MELTING_POINT_DEGC_TEST_PRED>
100.006

> <SURFACE_TENSION_DYN/CM_TEST_PRED>
-

> <THERMAL_CONDUCTIVITY_MW/(M*K)_TEST_PRED>
161.851

> <VISCOSITY_CP_CP_TEST_PRED>
8.66962

> <VAPOR_PRESSURE_MMHG_TEST_PRED>
4.40555e-06

> <WATER_SOLUBILITY_MOL/L_TEST_PRED>
0.00390841

> <AEGLVALUES>
0

> <ALGALTOX>
0

> <ARCHEMICALS>
0

> <ATSDRLST>
0

> <BISPHENOLS>
0

> <OEHHA>
0

> <CERAPP>
0

> <FUNNAMES>
0

> <KWRSJERPS>
0

> <EPACONS>
0

> <IRIS>
0

> <EPAHFR>
0

> <EUCOSMETICS>
0

> <FRENCHLIST>
0

> <HEROMAP>
0

> <ITNANTIBIOTIC>
0

> <KEMIMARKET>
0

> <MASSBANKREF>
0

> <MASSBANKEUSP>
0

> <NEMILIST>
0

> <NATADB>
0

> <NIOSHIDLH>
0

> <NIOSHICSC>
0

> <NIOSHNPG>
0

> <NIOSHSKIN>
0

> <NORMANCT15>
0

> <SFISHFLUORO>
0

> <NORMANPRI>
0

> <NORMANEWS>
0

> <PFASTRIER>
0

> <SWISSPHARMA>
0

> <PPRTVWEB>
0

> <STOCKHOLM>
0

> <STOFFIDENT>
0

> <SCDM>
0

> <EAWAGSURF>
0

> <SWISSPEST>
0

> <TOX21SL>
0

> <TOXCAST>
0

> <TOXCAST_E1K>
0

> <TOXCAST_PH1V2>
0

> <TOXCAST_PH2>
0

> <TOXCAST_PH3>
0

> <TOXCAST_PHASEI>
0

> <TOXCAST_PHASEII>
0

> <TOXCAST_PHASEIII>
0

> <TRIRELEASE>
0

> <TSCASURF>
0

> <UJIBADE>
0

> <ATHENSSUS>
0

> <UATHTARGETS>
0

$$$$

  Mrv1533009301517402D          

  0  0  0     0  0            999 V3000
M  V30 BEGIN CTAB
M  V30 COUNTS 12 13 0 0 1
M  V30 BEGIN ATOM
M  V30 1 N 4.4135 1.54 0 0
M  V30 2 N 4.4135 -1.54 0 0
M  V30 3 C 3.08 0.77 0 0
M  V30 4 C 3.08 -0.77 0 0
M  V30 5 C 5.7473 0.77 0 0
M  V30 6 C 5.7473 -0.77 0 0
M  V30 7 C 4.4135 3.08 0 0
M  V30 8 C 4.4135 -3.08 0 0
M  V30 9 C 7.1241 1.5934 0 0
M  V30 10 C 7.1241 -1.5934 0 0
M  V30 11 C 8.5195 0.8021 0 0
M  V30 12 C 8.5195 -0.8021 0 0
M  V30 END ATOM
M  V30 BEGIN BOND
M  V30 1 1 1 3
M  V30 2 1 1 5
M  V30 3 1 1 7
M  V30 4 1 2 4
M  V30 5 1 2 6
M  V30 6 1 2 8
M  V30 7 1 3 4
M  V30 8 1 5 6
M  V30 9 2 5 9
M  V30 10 2 6 10
M  V30 11 1 9 11
M  V30 12 1 10 12
M  V30 13 2 11 12
M  V30 END BOND
M  V30 END CTAB
M  END

> <INPUT>
C10H14N2

> <FOUND_BY>
MS Ready Formula

> <DTXCID_INDIVIDUAL_COMPONENT>
DTXCID90101499

> <FORMULA_INDIVIDUAL_COMPONENT>
C10H14N2

> <SMILES_INDIVIDUAL_COMPONENT>
CN1CCN(C)C2=CC=CC=C12

> <MAPPED_DTXSID>
DTXSID00179008

> <PREFERRED_NAME_DTXSID>
Quinoxaline, 1,2,3,4-tetrahydro-1,4-dimethyl-

> <CASRN_DTXSID>
2427-06-7

> <FORMULA_MAPPED_DTXSID>
C10H14N2

> <SMILES_MAPPED_DTXSID>
CN1CCN(C)C2=CC=CC=C12

> <MS_READY_SMILES>
CN1CCN(C)C2=CC=CC=C12

> <INCHI_STRING_DTXCID>
InChI=1S/C10H14N2/c1-11-7-8-12(2)10-6-4-3-5-9(10)11/h3-6H,7-8H2,1-2H3

> <INCHIKEY_DTXCID>
XGJGSZQCWARFIA-UHFFFAOYSA-N

> <MONOISOTOPIC_MASS_DTXCID>
162.115698459

> <EXPOCAST_MEDIAN_EXPOSURE_PREDICTION_MG/KG-BW/DAY>
-

> <EXPOCAST>
0

> <NHANES>
0

> <DATA_SOURCES>
3

> <TOXVAL_DATA>
0

> <TOXCAST_PERCENT_ACTIVE>
-

> <TOXCAST_NUMBER_OF_ASSAYS/TOTAL>
-

> <NUMBER_OF_PUBMED_ARTICLES>
-

> <PUBCHEM_DATA_SOURCES>
14

> <CPDAT_COUNT>
-

> <ATMOSPHERIC_HYDROXYLATION_RATE_(AOH)_CM3/MOLECULE*SEC_OPERA_PRED>
1.84039e-11

> <BIOCONCENTRATION_FACTOR_OPERA_PRED>
6.04297

> <BIODEGRADATION_HALF_LIFE_DAYS_DAYS_OPERA_PRED>
6.00751

> <BOILING_POINT_DEGC_OPERA_PRED>
259.955

> <HENRYS_LAW_ATM-M3/MOLE_OPERA_PRED>
2.41411e-06

> <OPERA_KM_DAYS_OPERA_PRED>
5.04758

> <OCTANOL_AIR_PARTITION_COEFF_LOGKOA_OPERA_PRED>
6.18945

> <SOIL_ADSORPTION_COEFFICIENT_KOC_L/KG_OPERA_PRED>
107.126

> <OCTANOL_WATER_PARTITION_LOGP_OPERA_PRED>
0.985395

> <MELTING_POINT_DEGC_OPERA_PRED>
122.98

> <VAPOR_PRESSURE_MMHG_OPERA_PRED>
0.00430991

> <WATER_SOLUBILITY_MOL/L_OPERA_PRED>
0.139003

> <TEST_BCF_TEST_PRED>
25.8821

> <BOILING_POINT_DEGC_TEST_PRED>
248.183

> <DENSITY_G/CM^3_TEST_PRED>
1.019

> <FLASH_POINT_DEGC_TEST_PRED>
92.785

> <MELTING_POINT_DEGC_TEST_PRED>
19.665

> <SURFACE_TENSION_DYN/CM_TEST_PRED>
34.128

> <THERMAL_CONDUCTIVITY_MW/(M*K)_TEST_PRED>
-

> <VISCOSITY_CP_CP_TEST_PRED>
4.2462

> <VAPOR_PRESSURE_MMHG_TEST_PRED>
0.0954993

> <WATER_SOLUBILITY_MOL/L_TEST_PRED>
0.0106414

> <AEGLVALUES>
0

> <ALGALTOX>
0

> <ARCHEMICALS>
0

> <ATSDRLST>
0

> <BISPHENOLS>
0

> <OEHHA>
0

> <CERAPP>
0

> <FUNNAMES>
0

> <KWRSJERPS>
0

> <EPACONS>
0

> <IRIS>
0

> <EPAHFR>
0

> <EUCOSMETICS>
0

> <FRENCHLIST>
0

> <HEROMAP>
0

> <ITNANTIBIOTIC>
0

> <KEMIMARKET>
0

> <MASSBANKREF>
0

> <MASSBANKEUSP>
0

> <NEMILIST>
0

> <NATADB>
0

> <NIOSHIDLH>
0

> <NIOSHICSC>
0

> <NIOSHNPG>
0

> <NIOSHSKIN>
0

> <NORMANCT15>
0

> <SFISHFLUORO>
0

> <NORMANPRI>
0

> <NORMANEWS>
0

> <PFASTRIER>
0

> <SWISSPHARMA>
0

> <PPRTVWEB>
0

> <STOCKHOLM>
0

> <STOFFIDENT>
0

> <SCDM>
0

> <EAWAGSURF>
0

> <SWISSPEST>
0

> <TOX21SL>
0

> <TOXCAST>
0

> <TOXCAST_E1K>
0

> <TOXCAST_PH1V2>
0

> <TOXCAST_PH2>
0

> <TOXCAST_PH3>
0

> <TOXCAST_PHASEI>
0

> <TOXCAST_PHASEII>
0

> <TOXCAST_PHASEIII>
0

> <TRIRELEASE>
0

> <TSCASURF>
0

> <UJIBADE>
0

> <ATHENSSUS>
0

> <UATHTARGETS>
0

$$$$
185782
  Mrv1611103081716072D          

  0  0  0     0  0            999 V3000
M  V30 BEGIN CTAB
M  V30 COUNTS 12 13 0 0 0
M  V30 BEGIN ATOM
M  V30 1 N -1.0703 -2.2636 0 0
M  V30 2 C 0.2634 -1.4936 0 0
M  V30 3 C 0.2634 0.0464 0 0
M  V30 4 C -1.0703 0.8164 0 0
M  V30 5 C -1.0703 2.3564 0 0
M  V30 6 C 0.2634 3.1264 0 0
M  V30 7 N 1.597 2.3564 0 0
M  V30 8 C 1.597 0.8164 0 0
M  V30 9 C 1.597 -2.2636 0 0
M  V30 10 C 1.597 -3.8036 0 0
M  V30 11 C 0.2634 -4.5736 0 0
M  V30 12 C -1.0703 -3.8036 0 0
M  V30 END ATOM
M  V30 BEGIN BOND
M  V30 1 1 1 2
M  V30 2 1 2 3
M  V30 3 2 3 4
M  V30 4 1 4 5
M  V30 5 2 5 6
M  V30 6 1 6 7
M  V30 7 2 7 8
M  V30 8 1 8 3
M  V30 9 1 2 9
M  V30 10 1 9 10
M  V30 11 1 10 11
M  V30 12 1 11 12
M  V30 13 1 12 1
M  V30 END BOND
M  V30 END CTAB
M  END

> <INPUT>
C10H14N2

> <FOUND_BY>
MS Ready Formula

> <DTXCID_INDIVIDUAL_COMPONENT>
DTXCID50202491

> <FORMULA_INDIVIDUAL_COMPONENT>
C10H14N2

> <SMILES_INDIVIDUAL_COMPONENT>
C1CCC(NC1)C1=CC=CN=C1

> <MAPPED_DTXSID>
DTXSID30190963

> <PREFERRED_NAME_DTXSID>
(S)-3-(2-Piperidyl)pyridine, compound with picric acid (1:2)

> <CASRN_DTXSID>
37520-45-9

> <FORMULA_MAPPED_DTXSID>
C22H20N8O14

> <SMILES_MAPPED_DTXSID>
C1CC[C@H](NC1)C1=CN=CC=C1.OC1=C(C=C(C=C1[N+]([O-])=O)[N+]([O-])=O)[N+]([O-])=O.OC1=C(C=C(C=C1[N+]([O-])=O)[N+]([O-])=O)[N+]([O-])=O

> <MS_READY_SMILES>
OC1=C(C=C(C=C1[N+]([O-])=O)[N+]([O-])=O)[N+]([O-])=O,C1CCC(NC1)C1=CC=CN=C1

> <INCHI_STRING_DTXCID>
InChI=1S/C10H14N2/c1-2-7-12-10(5-1)9-4-3-6-11-8-9/h3-4,6,8,10,12H,1-2,5,7H2

> <INCHIKEY_DTXCID>
MTXSIJUGVMTTMU-UHFFFAOYSA-N

> <MONOISOTOPIC_MASS_DTXCID>
162.115698459

> <EXPOCAST_MEDIAN_EXPOSURE_PREDICTION_MG/KG-BW/DAY>
-

> <EXPOCAST>
0

> <NHANES>
0

> <DATA_SOURCES>
3

> <TOXVAL_DATA>
0

> <TOXCAST_PERCENT_ACTIVE>
-

> <TOXCAST_NUMBER_OF_ASSAYS/TOTAL>
-

> <NUMBER_OF_PUBMED_ARTICLES>
-

> <PUBCHEM_DATA_SOURCES>
5

> <CPDAT_COUNT>
-

> <ATMOSPHERIC_HYDROXYLATION_RATE_(AOH)_CM3/MOLECULE*SEC_OPERA_PRED>
-

> <BIOCONCENTRATION_FACTOR_OPERA_PRED>
-

> <BIODEGRADATION_HALF_LIFE_DAYS_DAYS_OPERA_PRED>
-

> <BOILING_POINT_DEGC_OPERA_PRED>
-

> <HENRYS_LAW_ATM-M3/MOLE_OPERA_PRED>
-

> <OPERA_KM_DAYS_OPERA_PRED>
-

> <OCTANOL_AIR_PARTITION_COEFF_LOGKOA_OPERA_PRED>
-

> <SOIL_ADSORPTION_COEFFICIENT_KOC_L/KG_OPERA_PRED>
-

> <OCTANOL_WATER_PARTITION_LOGP_OPERA_PRED>
-

> <MELTING_POINT_DEGC_OPERA_PRED>
-

> <VAPOR_PRESSURE_MMHG_OPERA_PRED>
-

> <WATER_SOLUBILITY_MOL/L_OPERA_PRED>
-

> <TEST_BCF_TEST_PRED>
-

> <BOILING_POINT_DEGC_TEST_PRED>
-

> <DENSITY_G/CM^3_TEST_PRED>
-

> <FLASH_POINT_DEGC_TEST_PRED>
-

> <MELTING_POINT_DEGC_TEST_PRED>
-

> <SURFACE_TENSION_DYN/CM_TEST_PRED>
-

> <THERMAL_CONDUCTIVITY_MW/(M*K)_TEST_PRED>
-

> <VISCOSITY_CP_CP_TEST_PRED>
-

> <VAPOR_PRESSURE_MMHG_TEST_PRED>
-

> <WATER_SOLUBILITY_MOL/L_TEST_PRED>
-

> <AEGLVALUES>
0

> <ALGALTOX>
0

> <ARCHEMICALS>
0

> <ATSDRLST>
0

> <BISPHENOLS>
0

> <OEHHA>
0

> <CERAPP>
0

> <FUNNAMES>
0

> <KWRSJERPS>
0

> <EPACONS>
0

> <IRIS>
0

> <EPAHFR>
0

> <EUCOSMETICS>
0

> <FRENCHLIST>
0

> <HEROMAP>
0

> <ITNANTIBIOTIC>
0

> <KEMIMARKET>
0

> <MASSBANKREF>
0

> <MASSBANKEUSP>
0

> <NEMILIST>
0

> <NATADB>
0

> <NIOSHIDLH>
0

> <NIOSHICSC>
0

> <NIOSHNPG>
0

> <NIOSHSKIN>
0

> <NORMANCT15>
0

> <SFISHFLUORO>
0

> <NORMANPRI>
0

> <NORMANEWS>
0

> <PFASTRIER>
0

> <SWISSPHARMA>
0

> <PPRTVWEB>
0

> <STOCKHOLM>
0

> <STOFFIDENT>
0

> <SCDM>
0

> <EAWAGSURF>
0

> <SWISSPEST>
0

> <TOX21SL>
0

> <TOXCAST>
0

> <TOXCAST_E1K>
0

> <TOXCAST_PH1V2>
0

> <TOXCAST_PH2>
0

> <TOXCAST_PH3>
0

> <TOXCAST_PHASEI>
0

> <TOXCAST_PHASEII>
0

> <TOXCAST_PHASEIII>
0

> <TRIRELEASE>
0

> <TSCASURF>
0

> <UJIBADE>
0

> <ATHENSSUS>
0

> <UATHTARGETS>
0

$$$$

  Mrv1533009301517492D          

  0  0  0     0  0            999 V3000
M  V30 BEGIN CTAB
M  V30 COUNTS 12 13 0 0 0
M  V30 BEGIN ATOM
M  V30 1 N 5.7812 -2.5637 0 0
M  V30 2 N 5.7812 2.0836 0 0
M  V30 3 C 8.5886 0.2318 0 0
M  V30 4 C 9.4927 -1.0146 0 0
M  V30 5 C 7.1228 -0.24 0 0
M  V30 6 C 8.5886 -2.2613 0 0
M  V30 7 C 7.1228 -1.7892 0 0
M  V30 8 C 5.7812 0.5344 0 0
M  V30 9 C 4.4397 -0.24 0 0
M  V30 10 C 4.4397 -1.7892 0 0
M  V30 11 C 3.0982 0.5344 0 0
M  V30 12 C 3.0982 -2.5637 0 0
M  V30 END ATOM
M  V30 BEGIN BOND
M  V30 1 2 1 7
M  V30 2 1 1 10
M  V30 3 1 2 8
M  V30 4 1 3 4
M  V30 5 1 3 5
M  V30 6 1 4 6
M  V30 7 1 5 7
M  V30 8 2 5 8
M  V30 9 1 6 7
M  V30 10 1 8 9
M  V30 11 2 9 10
M  V30 12 1 9 11
M  V30 13 1 10 12
M  V30 END BOND
M  V30 END CTAB
M  END

> <INPUT>
C10H14N2

> <FOUND_BY>
MS Ready Formula

> <DTXCID_INDIVIDUAL_COMPONENT>
DTXCID50134304

> <FORMULA_INDIVIDUAL_COMPONENT>
C10H14N2

> <SMILES_INDIVIDUAL_COMPONENT>
CC1=C(C)C(N)=C2CCCC2=N1

> <MAPPED_DTXSID>
DTXSID20211813

> <PREFERRED_NAME_DTXSID>
5H-1-Pyrindine, 6,7-dihydro-4-amino-2,3-dimethyl-, hydrate

> <CASRN_DTXSID>
62732-46-1

> <FORMULA_MAPPED_DTXSID>
C10H14N2

> <SMILES_MAPPED_DTXSID>
CC1=C(C)C(N)=C2CCCC2=N1

> <MS_READY_SMILES>
CC1=C(C)C(N)=C2CCCC2=N1

> <INCHI_STRING_DTXCID>
InChI=1S/C10H14N2/c1-6-7(2)12-9-5-3-4-8(9)10(6)11/h3-5H2,1-2H3,(H2,11,12)

> <INCHIKEY_DTXCID>
XCACCLNWIIMXHQ-UHFFFAOYSA-N

> <MONOISOTOPIC_MASS_DTXCID>
162.115698459

> <EXPOCAST_MEDIAN_EXPOSURE_PREDICTION_MG/KG-BW/DAY>
-

> <EXPOCAST>
0

> <NHANES>
0

> <DATA_SOURCES>
3

> <TOXVAL_DATA>
0

> <TOXCAST_PERCENT_ACTIVE>
-

> <TOXCAST_NUMBER_OF_ASSAYS/TOTAL>
-

> <NUMBER_OF_PUBMED_ARTICLES>
-

> <PUBCHEM_DATA_SOURCES>
16

> <CPDAT_COUNT>
-

> <ATMOSPHERIC_HYDROXYLATION_RATE_(AOH)_CM3/MOLECULE*SEC_OPERA_PRED>
1.49737e-11

> <BIOCONCENTRATION_FACTOR_OPERA_PRED>
14.2292

> <BIODEGRADATION_HALF_LIFE_DAYS_DAYS_OPERA_PRED>
2.52966

> <BOILING_POINT_DEGC_OPERA_PRED>
285.527

> <HENRYS_LAW_ATM-M3/MOLE_OPERA_PRED>
2.78477e-07

> <OPERA_KM_DAYS_OPERA_PRED>
0.0934051

> <OCTANOL_AIR_PARTITION_COEFF_LOGKOA_OPERA_PRED>
8.68345

> <SOIL_ADSORPTION_COEFFICIENT_KOC_L/KG_OPERA_PRED>
197.14

> <OCTANOL_WATER_PARTITION_LOGP_OPERA_PRED>
0.936323

> <MELTING_POINT_DEGC_OPERA_PRED>
140.99

> <VAPOR_PRESSURE_MMHG_OPERA_PRED>
0.000117181

> <WATER_SOLUBILITY_MOL/L_OPERA_PRED>
0.00348902

> <TEST_BCF_TEST_PRED>
14.2233

> <BOILING_POINT_DEGC_TEST_PRED>
294.007

> <DENSITY_G/CM^3_TEST_PRED>
1.078

> <FLASH_POINT_DEGC_TEST_PRED>
137.107

> <MELTING_POINT_DEGC_TEST_PRED>
102.187

> <SURFACE_TENSION_DYN/CM_TEST_PRED>
-

> <THERMAL_CONDUCTIVITY_MW/(M*K)_TEST_PRED>
142.748

> <VISCOSITY_CP_CP_TEST_PRED>
6.53131

> <VAPOR_PRESSURE_MMHG_TEST_PRED>
0.00110662

> <WATER_SOLUBILITY_MOL/L_TEST_PRED>
0.00877001

> <AEGLVALUES>
0

> <ALGALTOX>
0

> <ARCHEMICALS>
0

> <ATSDRLST>
0

> <BISPHENOLS>
0

> <OEHHA>
0

> <CERAPP>
0

> <FUNNAMES>
0

> <KWRSJERPS>
0

> <EPACONS>
0

> <IRIS>
0

> <EPAHFR>
0

> <EUCOSMETICS>
0

> <FRENCHLIST>
0

> <HEROMAP>
0

> <ITNANTIBIOTIC>
0

> <KEMIMARKET>
0

> <MASSBANKREF>
0

> <MASSBANKEUSP>
0

> <NEMILIST>
0

> <NATADB>
0

> <NIOSHIDLH>
0

> <NIOSHICSC>
0

> <NIOSHNPG>
0

> <NIOSHSKIN>
0

> <NORMANCT15>
0

> <SFISHFLUORO>
0

> <NORMANPRI>
0

> <NORMANEWS>
0

> <PFASTRIER>
0

> <SWISSPHARMA>
0

> <PPRTVWEB>
0

> <STOCKHOLM>
0

> <STOFFIDENT>
0

> <SCDM>
0

> <EAWAGSURF>
0

> <SWISSPEST>
0

> <TOX21SL>
0

> <TOXCAST>
0

> <TOXCAST_E1K>
0

> <TOXCAST_PH1V2>
0

> <TOXCAST_PH2>
0

> <TOXCAST_PH3>
0

> <TOXCAST_PHASEI>
0

> <TOXCAST_PHASEII>
0

> <TOXCAST_PHASEIII>
0

> <TRIRELEASE>
0

> <TSCASURF>
0

> <UJIBADE>
0

> <ATHENSSUS>
0

> <UATHTARGETS>
0

$$$$
214836
  Mrv1533009301518012D          

  0  0  0     0  0            999 V3000
M  V30 BEGIN CTAB
M  V30 COUNTS 12 12 0 0 0
M  V30 BEGIN ATOM
M  V30 1 N 1.3336 -2.31 0 0
M  V30 2 C 1.3336 -0.77 0 0
M  V30 3 N 2.6674 0 0 0
M  V30 4 C 4.001 -0.77 0 0
M  V30 5 C 0 0 0 0
M  V30 6 C 0 1.54 0 0
M  V30 7 C -1.3336 2.31 0 0
M  V30 8 C -2.6674 1.54 0 0
M  V30 9 C -2.6674 0 0 0
M  V30 10 C -1.3336 -0.77 0 0
M  V30 11 C 2.6674 -3.08 0 0
M  V30 12 C 2.6674 -4.62 0 0
M  V30 END ATOM
M  V30 BEGIN BOND
M  V30 1 1 1 2
M  V30 2 2 2 3
M  V30 3 1 3 4
M  V30 4 1 2 5
M  V30 5 4 5 6
M  V30 6 4 6 7
M  V30 7 4 7 8
M  V30 8 4 8 9
M  V30 9 4 9 10
M  V30 10 4 10 5
M  V30 11 1 1 11
M  V30 12 1 11 12
M  V30 END BOND
M  V30 END CTAB
M  END

> <INPUT>
C10H14N2

> <FOUND_BY>
MS Ready Formula

> <DTXCID_INDIVIDUAL_COMPONENT>
DTXCID10205185

> <FORMULA_INDIVIDUAL_COMPONENT>
C10H14N2

> <SMILES_INDIVIDUAL_COMPONENT>
CCN\C(=N/C)c1ccccc1

> <MAPPED_DTXSID>
DTXSID90214836

> <PREFERRED_NAME_DTXSID>
Benzenecarboximidamide, N-ethyl-N'-methyl-, monohydrochloride

> <CASRN_DTXSID>
64593-93-7

> <FORMULA_MAPPED_DTXSID>
C10H15ClN2

> <SMILES_MAPPED_DTXSID>
Cl.CCN\C(=N/C)C1=CC=CC=C1

> <MS_READY_SMILES>
CCN\C(=N/C)c1ccccc1

> <INCHI_STRING_DTXCID>
InChI=1S/C10H14N2/c1-3-12-10(11-2)9-7-5-4-6-8-9/h4-8H,3H2,1-2H3,(H,11,12)

> <INCHIKEY_DTXCID>
XPJYNRPRFVIUIH-UHFFFAOYSA-N

> <MONOISOTOPIC_MASS_DTXCID>
162.115698459

> <EXPOCAST_MEDIAN_EXPOSURE_PREDICTION_MG/KG-BW/DAY>
-

> <EXPOCAST>
0

> <NHANES>
0

> <DATA_SOURCES>
3

> <TOXVAL_DATA>
0

> <TOXCAST_PERCENT_ACTIVE>
-

> <TOXCAST_NUMBER_OF_ASSAYS/TOTAL>
-

> <NUMBER_OF_PUBMED_ARTICLES>
-

> <PUBCHEM_DATA_SOURCES>
7

> <CPDAT_COUNT>
-

> <ATMOSPHERIC_HYDROXYLATION_RATE_(AOH)_CM3/MOLECULE*SEC_OPERA_PRED>
2.21956e-11

> <BIOCONCENTRATION_FACTOR_OPERA_PRED>
5.72223

> <BIODEGRADATION_HALF_LIFE_DAYS_DAYS_OPERA_PRED>
3.3497

> <BOILING_POINT_DEGC_OPERA_PRED>
269.073

> <HENRYS_LAW_ATM-M3/MOLE_OPERA_PRED>
9.71913e-08

> <OPERA_KM_DAYS_OPERA_PRED>
0.484063

> <OCTANOL_AIR_PARTITION_COEFF_LOGKOA_OPERA_PRED>
6.98377

> <SOIL_ADSORPTION_COEFFICIENT_KOC_L/KG_OPERA_PRED>
111.556

> <OCTANOL_WATER_PARTITION_LOGP_OPERA_PRED>
1.29127

> <MELTING_POINT_DEGC_OPERA_PRED>
158.037

> <VAPOR_PRESSURE_MMHG_OPERA_PRED>
0.0225796

> <WATER_SOLUBILITY_MOL/L_OPERA_PRED>
0.0552906

> <TEST_BCF_TEST_PRED>
11.1429

> <BOILING_POINT_DEGC_TEST_PRED>
-

> <DENSITY_G/CM^3_TEST_PRED>
1.085

> <FLASH_POINT_DEGC_TEST_PRED>
137.125

> <MELTING_POINT_DEGC_TEST_PRED>
115.944

> <SURFACE_TENSION_DYN/CM_TEST_PRED>
-

> <THERMAL_CONDUCTIVITY_MW/(M*K)_TEST_PRED>
-

> <VISCOSITY_CP_CP_TEST_PRED>
-

> <VAPOR_PRESSURE_MMHG_TEST_PRED>
-

> <WATER_SOLUBILITY_MOL/L_TEST_PRED>
0.00755092

> <AEGLVALUES>
0

> <ALGALTOX>
0

> <ARCHEMICALS>
0

> <ATSDRLST>
0

> <BISPHENOLS>
0

> <OEHHA>
0

> <CERAPP>
0

> <FUNNAMES>
0

> <KWRSJERPS>
0

> <EPACONS>
0

> <IRIS>
0

> <EPAHFR>
0

> <EUCOSMETICS>
0

> <FRENCHLIST>
0

> <HEROMAP>
0

> <ITNANTIBIOTIC>
0

> <KEMIMARKET>
0

> <MASSBANKREF>
0

> <MASSBANKEUSP>
0

> <NEMILIST>
0

> <NATADB>
0

> <NIOSHIDLH>
0

> <NIOSHICSC>
0

> <NIOSHNPG>
0

> <NIOSHSKIN>
0

> <NORMANCT15>
0

> <SFISHFLUORO>
0

> <NORMANPRI>
0

> <NORMANEWS>
0

> <PFASTRIER>
0

> <SWISSPHARMA>
0

> <PPRTVWEB>
0

> <STOCKHOLM>
0

> <STOFFIDENT>
0

> <SCDM>
0

> <EAWAGSURF>
0

> <SWISSPEST>
0

> <TOX21SL>
0

> <TOXCAST>
0

> <TOXCAST_E1K>
0

> <TOXCAST_PH1V2>
0

> <TOXCAST_PH2>
0

> <TOXCAST_PH3>
0

> <TOXCAST_PHASEI>
0

> <TOXCAST_PHASEII>
0

> <TOXCAST_PHASEIII>
0

> <TRIRELEASE>
0

> <TSCASURF>
0

> <UJIBADE>
0

> <ATHENSSUS>
0

> <UATHTARGETS>
0

$$$$
214840
  Mrv1533009301518012D          

  0  0  0     0  0            999 V3000
M  V30 BEGIN CTAB
M  V30 COUNTS 12 12 0 0 0
M  V30 BEGIN ATOM
M  V30 1 N 1.3336 -2.31 0 0
M  V30 2 C 1.3336 -0.77 0 0
M  V30 3 N 2.6674 0 0 0
M  V30 4 C 4.001 -0.77 0 0
M  V30 5 C 0 0 0 0
M  V30 6 C 0 1.54 0 0
M  V30 7 C -1.3336 2.31 0 0
M  V30 8 C -2.6674 1.54 0 0
M  V30 9 C -4.001 2.31 0 0
M  V30 10 C -2.6674 0 0 0
M  V30 11 C -1.3336 -0.77 0 0
M  V30 12 C 2.6674 -3.08 0 0
M  V30 END ATOM
M  V30 BEGIN BOND
M  V30 1 1 1 2
M  V30 2 2 2 3
M  V30 3 1 3 4
M  V30 4 1 2 5
M  V30 5 4 5 6
M  V30 6 4 6 7
M  V30 7 4 7 8
M  V30 8 1 8 9
M  V30 9 4 8 10
M  V30 10 4 10 11
M  V30 11 4 11 5
M  V30 12 1 1 12
M  V30 END BOND
M  V30 END CTAB
M  END

> <INPUT>
C10H14N2

> <FOUND_BY>
MS Ready Formula

> <DTXCID_INDIVIDUAL_COMPONENT>
DTXCID50205189

> <FORMULA_INDIVIDUAL_COMPONENT>
C10H14N2

> <SMILES_INDIVIDUAL_COMPONENT>
CN\C(=N/C)c1ccc(C)cc1

> <MAPPED_DTXSID>
DTXSID80214840

> <PREFERRED_NAME_DTXSID>
Benzenecarboximidamide, N,N',4-trimethyl-, monohydrochloride

> <CASRN_DTXSID>
64594-06-5

> <FORMULA_MAPPED_DTXSID>
C10H15ClN2

> <SMILES_MAPPED_DTXSID>
Cl.CN\C(=N/C)C1=CC=C(C)C=C1

> <MS_READY_SMILES>
CN\C(=N/C)c1ccc(C)cc1

> <INCHI_STRING_DTXCID>
InChI=1S/C10H14N2/c1-8-4-6-9(7-5-8)10(11-2)12-3/h4-7H,1-3H3,(H,11,12)

> <INCHIKEY_DTXCID>
NWPZITRZECKRAL-UHFFFAOYSA-N

> <MONOISOTOPIC_MASS_DTXCID>
162.115698459

> <EXPOCAST_MEDIAN_EXPOSURE_PREDICTION_MG/KG-BW/DAY>
-

> <EXPOCAST>
0

> <NHANES>
0

> <DATA_SOURCES>
3

> <TOXVAL_DATA>
0

> <TOXCAST_PERCENT_ACTIVE>
-

> <TOXCAST_NUMBER_OF_ASSAYS/TOTAL>
-

> <NUMBER_OF_PUBMED_ARTICLES>
-

> <PUBCHEM_DATA_SOURCES>
7

> <CPDAT_COUNT>
-

> <ATMOSPHERIC_HYDROXYLATION_RATE_(AOH)_CM3/MOLECULE*SEC_OPERA_PRED>
2.21711e-11

> <BIOCONCENTRATION_FACTOR_OPERA_PRED>
6.07337

> <BIODEGRADATION_HALF_LIFE_DAYS_DAYS_OPERA_PRED>
3.3459

> <BOILING_POINT_DEGC_OPERA_PRED>
271.661

> <HENRYS_LAW_ATM-M3/MOLE_OPERA_PRED>
9.83731e-08

> <OPERA_KM_DAYS_OPERA_PRED>
0.412134

> <OCTANOL_AIR_PARTITION_COEFF_LOGKOA_OPERA_PRED>
6.91168

> <SOIL_ADSORPTION_COEFFICIENT_KOC_L/KG_OPERA_PRED>
126.211

> <OCTANOL_WATER_PARTITION_LOGP_OPERA_PRED>
1.12479

> <MELTING_POINT_DEGC_OPERA_PRED>
158.758

> <VAPOR_PRESSURE_MMHG_OPERA_PRED>
0.0105989

> <WATER_SOLUBILITY_MOL/L_OPERA_PRED>
0.0105866

> <TEST_BCF_TEST_PRED>
9.86279

> <BOILING_POINT_DEGC_TEST_PRED>
-

> <DENSITY_G/CM^3_TEST_PRED>
1.078

> <FLASH_POINT_DEGC_TEST_PRED>
135.388

> <MELTING_POINT_DEGC_TEST_PRED>
116.591

> <SURFACE_TENSION_DYN/CM_TEST_PRED>
-

> <THERMAL_CONDUCTIVITY_MW/(M*K)_TEST_PRED>
-

> <VISCOSITY_CP_CP_TEST_PRED>
-

> <VAPOR_PRESSURE_MMHG_TEST_PRED>
-

> <WATER_SOLUBILITY_MOL/L_TEST_PRED>
0.00762079

> <AEGLVALUES>
0

> <ALGALTOX>
0

> <ARCHEMICALS>
0

> <ATSDRLST>
0

> <BISPHENOLS>
0

> <OEHHA>
0

> <CERAPP>
0

> <FUNNAMES>
0

> <KWRSJERPS>
0

> <EPACONS>
0

> <IRIS>
0

> <EPAHFR>
0

> <EUCOSMETICS>
0

> <FRENCHLIST>
0

> <HEROMAP>
0

> <ITNANTIBIOTIC>
0

> <KEMIMARKET>
0

> <MASSBANKREF>
0

> <MASSBANKEUSP>
0

> <NEMILIST>
0

> <NATADB>
0

> <NIOSHIDLH>
0

> <NIOSHICSC>
0

> <NIOSHNPG>
0

> <NIOSHSKIN>
0

> <NORMANCT15>
0

> <SFISHFLUORO>
0

> <NORMANPRI>
0

> <NORMANEWS>
0

> <PFASTRIER>
0

> <SWISSPHARMA>
0

> <PPRTVWEB>
0

> <STOCKHOLM>
0

> <STOFFIDENT>
0

> <SCDM>
0

> <EAWAGSURF>
0

> <SWISSPEST>
0

> <TOX21SL>
0

> <TOXCAST>
0

> <TOXCAST_E1K>
0

> <TOXCAST_PH1V2>
0

> <TOXCAST_PH2>
0

> <TOXCAST_PH3>
0

> <TOXCAST_PHASEI>
0

> <TOXCAST_PHASEII>
0

> <TOXCAST_PHASEIII>
0

> <TRIRELEASE>
0

> <TSCASURF>
0

> <UJIBADE>
0

> <ATHENSSUS>
0

> <UATHTARGETS>
0

$$$$

  Mrv1533009301517532D          

  0  0  0     0  0            999 V3000
M  V30 BEGIN CTAB
M  V30 COUNTS 12 13 0 0 1
M  V30 BEGIN ATOM
M  V30 1 N 4.4135 -0.8624 0 0
M  V30 2 N 4.4135 2.2176 0 0
M  V30 3 C 3.08 -0.0924 0 0
M  V30 4 C 3.08 1.4476 0 0
M  V30 5 C 5.7473 -0.0924 0 0
M  V30 6 C 5.7473 1.4476 0 0
M  V30 7 C 4.4135 -2.4024 0 0
M  V30 8 C 7.1241 -0.9158 0 0
M  V30 9 C 7.1241 2.271 0 0
M  V30 10 C 3.08 -3.1724 0 0
M  V30 11 C 8.5195 -0.1245 0 0
M  V30 12 C 8.5195 1.4797 0 0
M  V30 END ATOM
M  V30 BEGIN BOND
M  V30 1 1 1 3
M  V30 2 1 1 5
M  V30 3 1 1 7
M  V30 4 1 2 4
M  V30 5 1 2 6
M  V30 6 1 3 4
M  V30 7 1 5 6
M  V30 8 2 5 8
M  V30 9 2 6 9
M  V30 10 1 7 10
M  V30 11 1 8 11
M  V30 12 1 9 12
M  V30 13 2 11 12
M  V30 END BOND
M  V30 END CTAB
M  END

> <INPUT>
C10H14N2

> <FOUND_BY>
MS Ready Formula

> <DTXCID_INDIVIDUAL_COMPONENT>
DTXCID30146925

> <FORMULA_INDIVIDUAL_COMPONENT>
C10H14N2

> <SMILES_INDIVIDUAL_COMPONENT>
CCN1CCNC2=CC=CC=C12

> <MAPPED_DTXSID>
DTXSID30224434

> <PREFERRED_NAME_DTXSID>
Quinoxaline, 1,2,3,4-tetrahydro-1-ethyl-

> <CASRN_DTXSID>
73855-46-6

> <FORMULA_MAPPED_DTXSID>
C10H14N2

> <SMILES_MAPPED_DTXSID>
CCN1CCNC2=CC=CC=C12

> <MS_READY_SMILES>
CCN1CCNC2=CC=CC=C12

> <INCHI_STRING_DTXCID>
InChI=1S/C10H14N2/c1-2-12-8-7-11-9-5-3-4-6-10(9)12/h3-6,11H,2,7-8H2,1H3

> <INCHIKEY_DTXCID>
KIDFEKJWQHWALS-UHFFFAOYSA-N

> <MONOISOTOPIC_MASS_DTXCID>
162.115698459

> <EXPOCAST_MEDIAN_EXPOSURE_PREDICTION_MG/KG-BW/DAY>
-

> <EXPOCAST>
0

> <NHANES>
0

> <DATA_SOURCES>
3

> <TOXVAL_DATA>
0

> <TOXCAST_PERCENT_ACTIVE>
-

> <TOXCAST_NUMBER_OF_ASSAYS/TOTAL>
-

> <NUMBER_OF_PUBMED_ARTICLES>
-

> <PUBCHEM_DATA_SOURCES>
28

> <CPDAT_COUNT>
-

> <ATMOSPHERIC_HYDROXYLATION_RATE_(AOH)_CM3/MOLECULE*SEC_OPERA_PRED>
1.78803e-11

> <BIOCONCENTRATION_FACTOR_OPERA_PRED>
6.22523

> <BIODEGRADATION_HALF_LIFE_DAYS_DAYS_OPERA_PRED>
3.36733

> <BOILING_POINT_DEGC_OPERA_PRED>
296.549

> <HENRYS_LAW_ATM-M3/MOLE_OPERA_PRED>
2.64652e-07

> <OPERA_KM_DAYS_OPERA_PRED>
0.485045

> <OCTANOL_AIR_PARTITION_COEFF_LOGKOA_OPERA_PRED>
8.64147

> <SOIL_ADSORPTION_COEFFICIENT_KOC_L/KG_OPERA_PRED>
123.733

> <OCTANOL_WATER_PARTITION_LOGP_OPERA_PRED>
1.99549

> <MELTING_POINT_DEGC_OPERA_PRED>
47.548

> <VAPOR_PRESSURE_MMHG_OPERA_PRED>
0.00426144

> <WATER_SOLUBILITY_MOL/L_OPERA_PRED>
0.15928

> <TEST_BCF_TEST_PRED>
12.8233

> <BOILING_POINT_DEGC_TEST_PRED>
282.566

> <DENSITY_G/CM^3_TEST_PRED>
1.04

> <FLASH_POINT_DEGC_TEST_PRED>
112.57

> <MELTING_POINT_DEGC_TEST_PRED>
63.402

> <SURFACE_TENSION_DYN/CM_TEST_PRED>
-

> <THERMAL_CONDUCTIVITY_MW/(M*K)_TEST_PRED>
153.572

> <VISCOSITY_CP_CP_TEST_PRED>
6.56145

> <VAPOR_PRESSURE_MMHG_TEST_PRED>
0.00857038

> <WATER_SOLUBILITY_MOL/L_TEST_PRED>
0.00514044

> <AEGLVALUES>
0

> <ALGALTOX>
0

> <ARCHEMICALS>
0

> <ATSDRLST>
0

> <BISPHENOLS>
0

> <OEHHA>
0

> <CERAPP>
0

> <FUNNAMES>
0

> <KWRSJERPS>
0

> <EPACONS>
0

> <IRIS>
0

> <EPAHFR>
0

> <EUCOSMETICS>
0

> <FRENCHLIST>
0

> <HEROMAP>
0

> <ITNANTIBIOTIC>
0

> <KEMIMARKET>
0

> <MASSBANKREF>
0

> <MASSBANKEUSP>
0

> <NEMILIST>
0

> <NATADB>
0

> <NIOSHIDLH>
0

> <NIOSHICSC>
0

> <NIOSHNPG>
0

> <NIOSHSKIN>
0

> <NORMANCT15>
0

> <SFISHFLUORO>
0

> <NORMANPRI>
0

> <NORMANEWS>
0

> <PFASTRIER>
0

> <SWISSPHARMA>
0

> <PPRTVWEB>
0

> <STOCKHOLM>
0

> <STOFFIDENT>
0

> <SCDM>
0

> <EAWAGSURF>
0

> <SWISSPEST>
0

> <TOX21SL>
0

> <TOXCAST>
0

> <TOXCAST_E1K>
0

> <TOXCAST_PH1V2>
0

> <TOXCAST_PH2>
0

> <TOXCAST_PH3>
0

> <TOXCAST_PHASEI>
0

> <TOXCAST_PHASEII>
0

> <TOXCAST_PHASEIII>
0

> <TRIRELEASE>
0

> <TSCASURF>
0

> <UJIBADE>
0

> <ATHENSSUS>
0

> <UATHTARGETS>
0

$$$$

  Mrv1533009301517252D          

  0  0  0     0  0            999 V3000
M  V30 BEGIN CTAB
M  V30 COUNTS 12 13 0 0 0
M  V30 BEGIN ATOM
M  V30 1 C 2.3066 -6.6665 0 0
M  V30 2 C 3.0799 -5.3332 0 0
M  V30 3 N 2.3066 -3.9999 0 0
M  V30 4 C 0.7667 -3.9999 0 0
M  V30 5 C 0 -5.3332 0 0
M  V30 6 N 0.7667 -6.6665 0 0
M  V30 7 C 3.0799 -2.6665 0 0
M  V30 8 C 4.6199 -2.6665 0 0
M  V30 9 C 5.3866 -1.3333 0 0
M  V30 10 C 4.6199 0 0 0
M  V30 11 C 3.0799 0 0 0
M  V30 12 C 2.3066 -1.3333 0 0
M  V30 END ATOM
M  V30 BEGIN BOND
M  V30 1 1 1 2
M  V30 2 1 1 6
M  V30 3 1 2 3
M  V30 4 1 3 4
M  V30 5 1 3 7
M  V30 6 1 4 5
M  V30 7 1 5 6
M  V30 8 2 7 8
M  V30 9 1 7 12
M  V30 10 1 8 9
M  V30 11 2 9 10
M  V30 12 1 10 11
M  V30 13 2 11 12
M  V30 END BOND
M  V30 END CTAB
M  END

> <INPUT>
C10H14N2

> <FOUND_BY>
MS Ready Formula

> <DTXCID_INDIVIDUAL_COMPONENT>
DTXCID9031644

> <FORMULA_INDIVIDUAL_COMPONENT>
C10H14N2

> <SMILES_INDIVIDUAL_COMPONENT>
C1CN(CCN1)C1=CC=CC=C1

> <MAPPED_DTXSID>
DTXSID10226052

> <PREFERRED_NAME_DTXSID>
Iron, (ethanedioato(2-)-O,O')bis(1-phenylpiperazine-N(sup 1),N(sup 4))-

> <CASRN_DTXSID>
75079-25-3

> <FORMULA_MAPPED_DTXSID>
C22H28FeN4O4

> <SMILES_MAPPED_DTXSID>
[Fe++].[O-]C(=O)C([O-])=O.C1CN(CCN1)C1=CC=CC=C1.C1CN(CCN1)C1=CC=CC=C1

> <MS_READY_SMILES>
OC(=O)C(O)=O,C1CN(CCN1)C1=CC=CC=C1

> <INCHI_STRING_DTXCID>
InChI=1S/C10H14N2/c1-2-4-10(5-3-1)12-8-6-11-7-9-12/h1-5,11H,6-9H2

> <INCHIKEY_DTXCID>
YZTJYBJCZXZGCT-UHFFFAOYSA-N

> <MONOISOTOPIC_MASS_DTXCID>
162.115698459

> <EXPOCAST_MEDIAN_EXPOSURE_PREDICTION_MG/KG-BW/DAY>
-

> <EXPOCAST>
0

> <NHANES>
0

> <DATA_SOURCES>
3

> <TOXVAL_DATA>
0

> <TOXCAST_PERCENT_ACTIVE>
-

> <TOXCAST_NUMBER_OF_ASSAYS/TOTAL>
-

> <NUMBER_OF_PUBMED_ARTICLES>
-

> <PUBCHEM_DATA_SOURCES>
9

> <CPDAT_COUNT>
-

> <ATMOSPHERIC_HYDROXYLATION_RATE_(AOH)_CM3/MOLECULE*SEC_OPERA_PRED>
-

> <BIOCONCENTRATION_FACTOR_OPERA_PRED>
-

> <BIODEGRADATION_HALF_LIFE_DAYS_DAYS_OPERA_PRED>
-

> <BOILING_POINT_DEGC_OPERA_PRED>
-

> <HENRYS_LAW_ATM-M3/MOLE_OPERA_PRED>
-

> <OPERA_KM_DAYS_OPERA_PRED>
-

> <OCTANOL_AIR_PARTITION_COEFF_LOGKOA_OPERA_PRED>
-

> <SOIL_ADSORPTION_COEFFICIENT_KOC_L/KG_OPERA_PRED>
-

> <OCTANOL_WATER_PARTITION_LOGP_OPERA_PRED>
-

> <MELTING_POINT_DEGC_OPERA_PRED>
-

> <VAPOR_PRESSURE_MMHG_OPERA_PRED>
-

> <WATER_SOLUBILITY_MOL/L_OPERA_PRED>
-

> <TEST_BCF_TEST_PRED>
-

> <BOILING_POINT_DEGC_TEST_PRED>
-

> <DENSITY_G/CM^3_TEST_PRED>
-

> <FLASH_POINT_DEGC_TEST_PRED>
-

> <MELTING_POINT_DEGC_TEST_PRED>
-

> <SURFACE_TENSION_DYN/CM_TEST_PRED>
-

> <THERMAL_CONDUCTIVITY_MW/(M*K)_TEST_PRED>
-

> <VISCOSITY_CP_CP_TEST_PRED>
-

> <VAPOR_PRESSURE_MMHG_TEST_PRED>
-

> <WATER_SOLUBILITY_MOL/L_TEST_PRED>
-

> <AEGLVALUES>
0

> <ALGALTOX>
0

> <ARCHEMICALS>
0

> <ATSDRLST>
0

> <BISPHENOLS>
0

> <OEHHA>
0

> <CERAPP>
0

> <FUNNAMES>
0

> <KWRSJERPS>
0

> <EPACONS>
0

> <IRIS>
0

> <EPAHFR>
0

> <EUCOSMETICS>
0

> <FRENCHLIST>
0

> <HEROMAP>
0

> <ITNANTIBIOTIC>
0

> <KEMIMARKET>
0

> <MASSBANKREF>
0

> <MASSBANKEUSP>
0

> <NEMILIST>
0

> <NATADB>
0

> <NIOSHIDLH>
0

> <NIOSHICSC>
0

> <NIOSHNPG>
0

> <NIOSHSKIN>
0

> <NORMANCT15>
0

> <SFISHFLUORO>
0

> <NORMANPRI>
0

> <NORMANEWS>
0

> <PFASTRIER>
0

> <SWISSPHARMA>
0

> <PPRTVWEB>
0

> <STOCKHOLM>
0

> <STOFFIDENT>
0

> <SCDM>
0

> <EAWAGSURF>
0

> <SWISSPEST>
0

> <TOX21SL>
0

> <TOXCAST>
0

> <TOXCAST_E1K>
0

> <TOXCAST_PH1V2>
0

> <TOXCAST_PH2>
0

> <TOXCAST_PH3>
0

> <TOXCAST_PHASEI>
0

> <TOXCAST_PHASEII>
0

> <TOXCAST_PHASEIII>
0

> <TRIRELEASE>
0

> <TSCASURF>
0

> <UJIBADE>
0

> <ATHENSSUS>
0

> <UATHTARGETS>
0

$$$$

  Mrv1611108211713492D          

  0  0  0     0  0            999 V3000
M  V30 BEGIN CTAB
M  V30 COUNTS 12 13 0 0 0
M  V30 BEGIN ATOM
M  V30 1 N 5.3343 -2.0521 0 0
M  V30 2 C 4.0583 -2.9401 0 0
M  V30 3 C 2.6507 -2.3152 0 0
M  V30 4 N 1.3352 0 0 0
M  V30 5 C 2.6507 -0.7762 0 0
M  V30 6 C 6.5774 -2.927 0 0
M  V30 7 C 5.3343 -0.4801 0 0
M  V30 8 C 4.5581 -4.4069 0 0
M  V30 9 C 6.1301 -4.4069 0 0
M  V30 10 C 1.3352 -3.0717 0 0
M  V30 11 C 0 -0.7565 0 0
M  V30 12 C 0 -2.3152 0 0
M  V30 END ATOM
M  V30 BEGIN BOND
M  V30 1 1 1 2
M  V30 2 1 1 6
M  V30 3 1 1 7
M  V30 4 1 2 3
M  V30 5 1 2 8
M  V30 6 2 3 5
M  V30 7 1 3 10
M  V30 8 1 4 5
M  V30 9 2 4 11
M  V30 10 1 6 9
M  V30 11 1 8 9
M  V30 12 2 10 12
M  V30 13 1 11 12
M  V30 END BOND
M  V30 END CTAB
M  END

> <INPUT>
C10H14N2

> <FOUND_BY>
MS Ready Formula

> <DTXCID_INDIVIDUAL_COMPONENT>
DTXCID9028128

> <FORMULA_INDIVIDUAL_COMPONENT>
C10H14N2

> <SMILES_INDIVIDUAL_COMPONENT>
CN1CCCC1C1=CN=CC=C1

> <MAPPED_DTXSID>
DTXSID10230437

> <PREFERRED_NAME_DTXSID>
Pyridine, 3-(1-methyl-2-pyrrolidinyl-4,4-t2)-, (R)-

> <CASRN_DTXSID>
80604-52-0

> <FORMULA_MAPPED_DTXSID>
C10H12T2N2

> <SMILES_MAPPED_DTXSID>
[3H]C1([3H])C[C@@H](N(C)C1)C1=CN=CC=C1

> <MS_READY_SMILES>
-

> <INCHI_STRING_DTXCID>
InChI=1S/C10H14N2/c1-12-7-3-5-10(12)9-4-2-6-11-8-9/h2,4,6,8,10H,3,5,7H2,1H3

> <INCHIKEY_DTXCID>
SNICXCGAKADSCV-UHFFFAOYSA-N

> <MONOISOTOPIC_MASS_DTXCID>
162.115698459

> <EXPOCAST_MEDIAN_EXPOSURE_PREDICTION_MG/KG-BW/DAY>
-

> <EXPOCAST>
0

> <NHANES>
0

> <DATA_SOURCES>
3

> <TOXVAL_DATA>
0

> <TOXCAST_PERCENT_ACTIVE>
-

> <TOXCAST_NUMBER_OF_ASSAYS/TOTAL>
-

> <NUMBER_OF_PUBMED_ARTICLES>
-

> <PUBCHEM_DATA_SOURCES>
7

> <CPDAT_COUNT>
-

> <ATMOSPHERIC_HYDROXYLATION_RATE_(AOH)_CM3/MOLECULE*SEC_OPERA_PRED>
4.3164e-11

> <BIOCONCENTRATION_FACTOR_OPERA_PRED>
6.524

> <BIODEGRADATION_HALF_LIFE_DAYS_DAYS_OPERA_PRED>
3.36018

> <BOILING_POINT_DEGC_OPERA_PRED>
253.418

> <HENRYS_LAW_ATM-M3/MOLE_OPERA_PRED>
6.65993e-06

> <OPERA_KM_DAYS_OPERA_PRED>
5.93649

> <OCTANOL_AIR_PARTITION_COEFF_LOGKOA_OPERA_PRED>
5.80576

> <SOIL_ADSORPTION_COEFFICIENT_KOC_L/KG_OPERA_PRED>
110.746

> <OCTANOL_WATER_PARTITION_LOGP_OPERA_PRED>
1.17766

> <MELTING_POINT_DEGC_OPERA_PRED>
-34.4392

> <VAPOR_PRESSURE_MMHG_OPERA_PRED>
0.013088

> <WATER_SOLUBILITY_MOL/L_OPERA_PRED>
4.51047

> <TEST_BCF_TEST_PRED>
11.995

> <BOILING_POINT_DEGC_TEST_PRED>
244.899

> <DENSITY_G/CM^3_TEST_PRED>
1.03

> <FLASH_POINT_DEGC_TEST_PRED>
95.541

> <MELTING_POINT_DEGC_TEST_PRED>
18.147

> <SURFACE_TENSION_DYN/CM_TEST_PRED>
36.302

> <THERMAL_CONDUCTIVITY_MW/(M*K)_TEST_PRED>
143.221

> <VISCOSITY_CP_CP_TEST_PRED>
7.2778

> <VAPOR_PRESSURE_MMHG_TEST_PRED>
0.00436516

> <WATER_SOLUBILITY_MOL/L_TEST_PRED>
0.0799834

> <AEGLVALUES>
0

> <ALGALTOX>
0

> <ARCHEMICALS>
0

> <ATSDRLST>
0

> <BISPHENOLS>
0

> <OEHHA>
0

> <CERAPP>
0

> <FUNNAMES>
0

> <KWRSJERPS>
0

> <EPACONS>
0

> <IRIS>
0

> <EPAHFR>
0

> <EUCOSMETICS>
0

> <FRENCHLIST>
0

> <HEROMAP>
0

> <ITNANTIBIOTIC>
0

> <KEMIMARKET>
0

> <MASSBANKREF>
0

> <MASSBANKEUSP>
0

> <NEMILIST>
0

> <NATADB>
0

> <NIOSHIDLH>
0

> <NIOSHICSC>
0

> <NIOSHNPG>
0

> <NIOSHSKIN>
0

> <NORMANCT15>
0

> <SFISHFLUORO>
0

> <NORMANPRI>
0

> <NORMANEWS>
0

> <PFASTRIER>
0

> <SWISSPHARMA>
0

> <PPRTVWEB>
0

> <STOCKHOLM>
0

> <STOFFIDENT>
0

> <SCDM>
0

> <EAWAGSURF>
0

> <SWISSPEST>
0

> <TOX21SL>
0

> <TOXCAST>
0

> <TOXCAST_E1K>
0

> <TOXCAST_PH1V2>
0

> <TOXCAST_PH2>
0

> <TOXCAST_PH3>
0

> <TOXCAST_PHASEI>
0

> <TOXCAST_PHASEII>
0

> <TOXCAST_PHASEIII>
0

> <TRIRELEASE>
0

> <TSCASURF>
0

> <UJIBADE>
0

> <ATHENSSUS>
0

> <UATHTARGETS>
0

$$$$

  Mrv1533009301517552D          

  0  0  0     0  0            999 V3000
M  V30 BEGIN CTAB
M  V30 COUNTS 12 13 0 0 0
M  V30 BEGIN ATOM
M  V30 1 N 4.4137 2.7983 0 0
M  V30 2 N 4.4137 -3.3619 0 0
M  V30 3 C 5.1837 4.1319 0 0
M  V30 4 C 3.6437 4.1319 0 0
M  V30 5 C 4.4137 1.2581 0 0
M  V30 6 C 3.08 0.4881 0 0
M  V30 7 C 5.7475 0.4881 0 0
M  V30 8 C 4.4137 -1.8219 0 0
M  V30 9 C 3.08 -1.0519 0 0
M  V30 10 C 5.7475 -1.0519 0 0
M  V30 11 C 3.08 -4.1319 0 0
M  V30 12 C 5.7475 -4.1319 0 0
M  V30 END ATOM
M  V30 BEGIN BOND
M  V30 1 1 1 3
M  V30 2 1 1 4
M  V30 3 1 1 5
M  V30 4 1 2 8
M  V30 5 1 2 11
M  V30 6 1 2 12
M  V30 7 1 3 4
M  V30 8 2 5 6
M  V30 9 1 5 7
M  V30 10 1 6 9
M  V30 11 2 7 10
M  V30 12 2 8 9
M  V30 13 1 8 10
M  V30 END BOND
M  V30 END CTAB
M  END

> <INPUT>
C10H14N2

> <FOUND_BY>
MS Ready Formula

> <DTXCID_INDIVIDUAL_COMPONENT>
DTXCID60154033

> <FORMULA_INDIVIDUAL_COMPONENT>
C10H14N2

> <SMILES_INDIVIDUAL_COMPONENT>
CN(C)C1=CC=C(C=C1)N1CC1

> <MAPPED_DTXSID>
DTXSID30231542

> <PREFERRED_NAME_DTXSID>
p-Dimethylaminophenyl aziridine

> <CASRN_DTXSID>
82027-08-5

> <FORMULA_MAPPED_DTXSID>
C10H14N2

> <SMILES_MAPPED_DTXSID>
CN(C)C1=CC=C(C=C1)N1CC1

> <MS_READY_SMILES>
CN(C)C1=CC=C(C=C1)N1CC1

> <INCHI_STRING_DTXCID>
InChI=1S/C10H14N2/c1-11(2)9-3-5-10(6-4-9)12-7-8-12/h3-6H,7-8H2,1-2H3

> <INCHIKEY_DTXCID>
FSTZGHIBMJDRNA-UHFFFAOYSA-N

> <MONOISOTOPIC_MASS_DTXCID>
162.115698459

> <EXPOCAST_MEDIAN_EXPOSURE_PREDICTION_MG/KG-BW/DAY>
-

> <EXPOCAST>
0

> <NHANES>
0

> <DATA_SOURCES>
3

> <TOXVAL_DATA>
0

> <TOXCAST_PERCENT_ACTIVE>
-

> <TOXCAST_NUMBER_OF_ASSAYS/TOTAL>
-

> <NUMBER_OF_PUBMED_ARTICLES>
-

> <PUBCHEM_DATA_SOURCES>
8

> <CPDAT_COUNT>
-

> <ATMOSPHERIC_HYDROXYLATION_RATE_(AOH)_CM3/MOLECULE*SEC_OPERA_PRED>
1.84119e-11

> <BIOCONCENTRATION_FACTOR_OPERA_PRED>
6.0496

> <BIODEGRADATION_HALF_LIFE_DAYS_DAYS_OPERA_PRED>
4.97451

> <BOILING_POINT_DEGC_OPERA_PRED>
254.576

> <HENRYS_LAW_ATM-M3/MOLE_OPERA_PRED>
1.85966e-05

> <OPERA_KM_DAYS_OPERA_PRED>
1.14619

> <OCTANOL_AIR_PARTITION_COEFF_LOGKOA_OPERA_PRED>
6.56088

> <SOIL_ADSORPTION_COEFFICIENT_KOC_L/KG_OPERA_PRED>
116.708

> <OCTANOL_WATER_PARTITION_LOGP_OPERA_PRED>
1.09492

> <MELTING_POINT_DEGC_OPERA_PRED>
98.09

> <VAPOR_PRESSURE_MMHG_OPERA_PRED>
0.0120305

> <WATER_SOLUBILITY_MOL/L_OPERA_PRED>
0.134703

> <TEST_BCF_TEST_PRED>
-

> <BOILING_POINT_DEGC_TEST_PRED>
-

> <DENSITY_G/CM^3_TEST_PRED>
1.168

> <FLASH_POINT_DEGC_TEST_PRED>
118.319

> <MELTING_POINT_DEGC_TEST_PRED>
40.65

> <SURFACE_TENSION_DYN/CM_TEST_PRED>
-

> <THERMAL_CONDUCTIVITY_MW/(M*K)_TEST_PRED>
-

> <VISCOSITY_CP_CP_TEST_PRED>
-

> <VAPOR_PRESSURE_MMHG_TEST_PRED>
-

> <WATER_SOLUBILITY_MOL/L_TEST_PRED>
-

> <AEGLVALUES>
0

> <ALGALTOX>
0

> <ARCHEMICALS>
0

> <ATSDRLST>
0

> <BISPHENOLS>
0

> <OEHHA>
0

> <CERAPP>
0

> <FUNNAMES>
0

> <KWRSJERPS>
0

> <EPACONS>
0

> <IRIS>
0

> <EPAHFR>
0

> <EUCOSMETICS>
0

> <FRENCHLIST>
0

> <HEROMAP>
0

> <ITNANTIBIOTIC>
0

> <KEMIMARKET>
0

> <MASSBANKREF>
0

> <MASSBANKEUSP>
0

> <NEMILIST>
0

> <NATADB>
0

> <NIOSHIDLH>
0

> <NIOSHICSC>
0

> <NIOSHNPG>
0

> <NIOSHSKIN>
0

> <NORMANCT15>
0

> <SFISHFLUORO>
0

> <NORMANPRI>
0

> <NORMANEWS>
0

> <PFASTRIER>
0

> <SWISSPHARMA>
0

> <PPRTVWEB>
0

> <STOCKHOLM>
0

> <STOFFIDENT>
0

> <SCDM>
0

> <EAWAGSURF>
0

> <SWISSPEST>
0

> <TOX21SL>
0

> <TOXCAST>
0

> <TOXCAST_E1K>
0

> <TOXCAST_PH1V2>
0

> <TOXCAST_PH2>
0

> <TOXCAST_PH3>
0

> <TOXCAST_PHASEI>
0

> <TOXCAST_PHASEII>
0

> <TOXCAST_PHASEIII>
0

> <TRIRELEASE>
0

> <TSCASURF>
0

> <UJIBADE>
0

> <ATHENSSUS>
0

> <UATHTARGETS>
0

$$$$
288699
  Mrv1611109301620162D          

  0  0  0     0  0            999 V3000
M  V30 BEGIN CTAB
M  V30 COUNTS 12 12 0 0 0
M  V30 BEGIN ATOM
M  V30 1 N 4.1486 2.4993 0 0
M  V30 2 C 2.9689 1.5094 0 0
M  V30 3 C 1.7892 0.5195 0 0
M  V30 4 C 0.6095 1.5094 0 0
M  V30 5 N -0.5702 2.4993 0 0
M  V30 6 C 2.5592 -0.8142 0 0
M  V30 7 C 1.0192 -0.8142 0 0
M  V30 8 C 0.3684 -2.2099 0 0
M  V30 9 C -0.515 -0.68 0 0
M  V30 10 C -1.3983 -1.9414 0 0
M  V30 11 C -2.9324 -1.8072 0 0
M  V30 12 C -3.8157 -3.0687 0 0
M  V30 END ATOM
M  V30 BEGIN BOND
M  V30 1 3 1 2
M  V30 2 1 2 3
M  V30 3 1 3 4
M  V30 4 3 4 5
M  V30 5 1 3 6
M  V30 6 1 6 7
M  V30 7 1 7 3
M  V30 8 1 7 8
M  V30 9 1 7 9
M  V30 10 1 9 10
M  V30 11 1 10 11
M  V30 12 1 11 12
M  V30 END BOND
M  V30 END CTAB
M  END

> <INPUT>
C10H14N2

> <FOUND_BY>
MS Ready Formula

> <DTXCID_INDIVIDUAL_COMPONENT>
DTXCID10966183

> <FORMULA_INDIVIDUAL_COMPONENT>
C10H14N2

> <SMILES_INDIVIDUAL_COMPONENT>
CCCCC1(C)CC1(C#N)C#N

> <MAPPED_DTXSID>
DTXSID50337611

> <PREFERRED_NAME_DTXSID>
2-Butyl-2-methyl-1,1-cyclopropanedicarbonitrile

> <CASRN_DTXSID>
16738-89-9

> <FORMULA_MAPPED_DTXSID>
C10H14N2

> <SMILES_MAPPED_DTXSID>
CCCCC1(C)CC1(C#N)C#N

> <MS_READY_SMILES>
CCCCC1(C)CC1(C#N)C#N

> <INCHI_STRING_DTXCID>
InChI=1S/C10H14N2/c1-3-4-5-9(2)6-10(9,7-11)8-12/h3-6H2,1-2H3

> <INCHIKEY_DTXCID>
YLNNLLQHQHTGKM-UHFFFAOYSA-N

> <MONOISOTOPIC_MASS_DTXCID>
162.115698459

> <EXPOCAST_MEDIAN_EXPOSURE_PREDICTION_MG/KG-BW/DAY>
-

> <EXPOCAST>
0

> <NHANES>
0

> <DATA_SOURCES>
3

> <TOXVAL_DATA>
0

> <TOXCAST_PERCENT_ACTIVE>
-

> <TOXCAST_NUMBER_OF_ASSAYS/TOTAL>
-

> <NUMBER_OF_PUBMED_ARTICLES>
-

> <PUBCHEM_DATA_SOURCES>
9

> <CPDAT_COUNT>
-

> <ATMOSPHERIC_HYDROXYLATION_RATE_(AOH)_CM3/MOLECULE*SEC_OPERA_PRED>
4.23719e-12

> <BIOCONCENTRATION_FACTOR_OPERA_PRED>
20.3647

> <BIODEGRADATION_HALF_LIFE_DAYS_DAYS_OPERA_PRED>
5.29101

> <BOILING_POINT_DEGC_OPERA_PRED>
282.994

> <HENRYS_LAW_ATM-M3/MOLE_OPERA_PRED>
5.52798e-07

> <OPERA_KM_DAYS_OPERA_PRED>
2.11924

> <OCTANOL_AIR_PARTITION_COEFF_LOGKOA_OPERA_PRED>
5.75289

> <SOIL_ADSORPTION_COEFFICIENT_KOC_L/KG_OPERA_PRED>
42.3495

> <OCTANOL_WATER_PARTITION_LOGP_OPERA_PRED>
1.63703

> <MELTING_POINT_DEGC_OPERA_PRED>
34.8637

> <VAPOR_PRESSURE_MMHG_OPERA_PRED>
0.00578469

> <WATER_SOLUBILITY_MOL/L_OPERA_PRED>
0.00289504

> <TEST_BCF_TEST_PRED>
47.863

> <BOILING_POINT_DEGC_TEST_PRED>
270.735

> <DENSITY_G/CM^3_TEST_PRED>
0.951

> <FLASH_POINT_DEGC_TEST_PRED>
118.191

> <MELTING_POINT_DEGC_TEST_PRED>
43.663

> <SURFACE_TENSION_DYN/CM_TEST_PRED>
35.012

> <THERMAL_CONDUCTIVITY_MW/(M*K)_TEST_PRED>
-

> <VISCOSITY_CP_CP_TEST_PRED>
5.06991

> <VAPOR_PRESSURE_MMHG_TEST_PRED>
0.0355631

> <WATER_SOLUBILITY_MOL/L_TEST_PRED>
0.0165959

> <AEGLVALUES>
0

> <ALGALTOX>
0

> <ARCHEMICALS>
0

> <ATSDRLST>
0

> <BISPHENOLS>
0

> <OEHHA>
0

> <CERAPP>
0

> <FUNNAMES>
0

> <KWRSJERPS>
0

> <EPACONS>
0

> <IRIS>
0

> <EPAHFR>
0

> <EUCOSMETICS>
0

> <FRENCHLIST>
0

> <HEROMAP>
0

> <ITNANTIBIOTIC>
0

> <KEMIMARKET>
0

> <MASSBANKREF>
0

> <MASSBANKEUSP>
0

> <NEMILIST>
0

> <NATADB>
0

> <NIOSHIDLH>
0

> <NIOSHICSC>
0

> <NIOSHNPG>
0

> <NIOSHSKIN>
0

> <NORMANCT15>
0

> <SFISHFLUORO>
0

> <NORMANPRI>
0

> <NORMANEWS>
0

> <PFASTRIER>
0

> <SWISSPHARMA>
0

> <PPRTVWEB>
0

> <STOCKHOLM>
0

> <STOFFIDENT>
0

> <SCDM>
0

> <EAWAGSURF>
0

> <SWISSPEST>
0

> <TOX21SL>
0

> <TOXCAST>
0

> <TOXCAST_E1K>
0

> <TOXCAST_PH1V2>
0

> <TOXCAST_PH2>
0

> <TOXCAST_PH3>
0

> <TOXCAST_PHASEI>
0

> <TOXCAST_PHASEII>
0

> <TOXCAST_PHASEIII>
0

> <TRIRELEASE>
0

> <TSCASURF>
0

> <UJIBADE>
0

> <ATHENSSUS>
0

> <UATHTARGETS>
0

$$$$

  Mrv1533009301518332D          

  0  0  0     0  0            999 V3000
M  V30 BEGIN CTAB
M  V30 COUNTS 12 13 0 0 0
M  V30 BEGIN ATOM
M  V30 1 N 4.4137 0.77 0 0
M  V30 2 N 3.08 -1.54 0 0
M  V30 3 C 4.4137 3.85 0 0
M  V30 4 C 3.08 3.08 0 0
M  V30 5 C 5.7475 3.08 0 0
M  V30 6 C 3.08 1.54 0 0
M  V30 7 C 5.7475 1.54 0 0
M  V30 8 C 4.4137 -0.77 0 0
M  V30 9 C 5.7475 -1.54 0 0
M  V30 10 C 5.7475 -3.08 0 0
M  V30 11 C 3.08 -3.08 0 0
M  V30 12 C 4.4137 -3.85 0 0
M  V30 END ATOM
M  V30 BEGIN BOND
M  V30 1 1 1 6
M  V30 2 1 1 7
M  V30 3 1 1 8
M  V30 4 1 2 8
M  V30 5 2 2 11
M  V30 6 1 3 4
M  V30 7 1 3 5
M  V30 8 1 4 6
M  V30 9 1 5 7
M  V30 10 2 8 9
M  V30 11 1 9 10
M  V30 12 2 10 12
M  V30 13 1 11 12
M  V30 END BOND
M  V30 END CTAB
M  END

> <INPUT>
C10H14N2

> <FOUND_BY>
MS Ready Formula

> <DTXCID_INDIVIDUAL_COMPONENT>
DTXCID60306914

> <FORMULA_INDIVIDUAL_COMPONENT>
C10H14N2

> <SMILES_INDIVIDUAL_COMPONENT>
C1CCN(CC1)C1=CC=CC=N1

> <MAPPED_DTXSID>
DTXSID50355855

> <PREFERRED_NAME_DTXSID>
2-piperidin-1-ylpyridine

> <CASRN_DTXSID>
68654-52-4

> <FORMULA_MAPPED_DTXSID>
C10H14N2

> <SMILES_MAPPED_DTXSID>
C1CCN(CC1)C1=CC=CC=N1

> <MS_READY_SMILES>
C1CCN(CC1)C1=CC=CC=N1

> <INCHI_STRING_DTXCID>
InChI=1S/C10H14N2/c1-4-8-12(9-5-1)10-6-2-3-7-11-10/h2-3,6-7H,1,4-5,8-9H2

> <INCHIKEY_DTXCID>
AJEUJXWLOADTKA-UHFFFAOYSA-N

> <MONOISOTOPIC_MASS_DTXCID>
162.115698459

> <EXPOCAST_MEDIAN_EXPOSURE_PREDICTION_MG/KG-BW/DAY>
-

> <EXPOCAST>
0

> <NHANES>
0

> <DATA_SOURCES>
3

> <TOXVAL_DATA>
0

> <TOXCAST_PERCENT_ACTIVE>
-

> <TOXCAST_NUMBER_OF_ASSAYS/TOTAL>
-

> <NUMBER_OF_PUBMED_ARTICLES>
-

> <PUBCHEM_DATA_SOURCES>
41

> <CPDAT_COUNT>
-

> <ATMOSPHERIC_HYDROXYLATION_RATE_(AOH)_CM3/MOLECULE*SEC_OPERA_PRED>
4.29683e-11

> <BIOCONCENTRATION_FACTOR_OPERA_PRED>
14.5615

> <BIODEGRADATION_HALF_LIFE_DAYS_DAYS_OPERA_PRED>
4.90918

> <BOILING_POINT_DEGC_OPERA_PRED>
255.311

> <HENRYS_LAW_ATM-M3/MOLE_OPERA_PRED>
4.35768e-06

> <OPERA_KM_DAYS_OPERA_PRED>
2.70106

> <OCTANOL_AIR_PARTITION_COEFF_LOGKOA_OPERA_PRED>
6.66149

> <SOIL_ADSORPTION_COEFFICIENT_KOC_L/KG_OPERA_PRED>
176.04

> <OCTANOL_WATER_PARTITION_LOGP_OPERA_PRED>
1.96651

> <MELTING_POINT_DEGC_OPERA_PRED>
124.704

> <VAPOR_PRESSURE_MMHG_OPERA_PRED>
0.00190303

> <WATER_SOLUBILITY_MOL/L_OPERA_PRED>
0.0863295

> <TEST_BCF_TEST_PRED>
12.735

> <BOILING_POINT_DEGC_TEST_PRED>
254.369

> <DENSITY_G/CM^3_TEST_PRED>
1.048

> <FLASH_POINT_DEGC_TEST_PRED>
112.517

> <MELTING_POINT_DEGC_TEST_PRED>
42.642

> <SURFACE_TENSION_DYN/CM_TEST_PRED>
37.005

> <THERMAL_CONDUCTIVITY_MW/(M*K)_TEST_PRED>
148.209

> <VISCOSITY_CP_CP_TEST_PRED>
4.32514

> <VAPOR_PRESSURE_MMHG_TEST_PRED>
0.0564937

> <WATER_SOLUBILITY_MOL/L_TEST_PRED>
0.012388

> <AEGLVALUES>
0

> <ALGALTOX>
0

> <ARCHEMICALS>
0

> <ATSDRLST>
0

> <BISPHENOLS>
0

> <OEHHA>
0

> <CERAPP>
0

> <FUNNAMES>
0

> <KWRSJERPS>
0

> <EPACONS>
0

> <IRIS>
0

> <EPAHFR>
0

> <EUCOSMETICS>
0

> <FRENCHLIST>
0

> <HEROMAP>
0

> <ITNANTIBIOTIC>
0

> <KEMIMARKET>
0

> <MASSBANKREF>
0

> <MASSBANKEUSP>
0

> <NEMILIST>
0

> <NATADB>
0

> <NIOSHIDLH>
0

> <NIOSHICSC>
0

> <NIOSHNPG>
0

> <NIOSHSKIN>
0

> <NORMANCT15>
0

> <SFISHFLUORO>
0

> <NORMANPRI>
0

> <NORMANEWS>
0

> <PFASTRIER>
0

> <SWISSPHARMA>
0

> <PPRTVWEB>
0

> <STOCKHOLM>
0

> <STOFFIDENT>
0

> <SCDM>
0

> <EAWAGSURF>
0

> <SWISSPEST>
0

> <TOX21SL>
0

> <TOXCAST>
0

> <TOXCAST_E1K>
0

> <TOXCAST_PH1V2>
0

> <TOXCAST_PH2>
0

> <TOXCAST_PH3>
0

> <TOXCAST_PHASEI>
0

> <TOXCAST_PHASEII>
0

> <TOXCAST_PHASEIII>
0

> <TRIRELEASE>
0

> <TSCASURF>
0

> <UJIBADE>
0

> <ATHENSSUS>
0

> <UATHTARGETS>
0

$$$$

  Mrv1533009301519072D          

  0  0  0     0  0            999 V3000
M  V30 BEGIN CTAB
M  V30 COUNTS 12 13 0 0 1
M  V30 BEGIN ATOM
M  V30 1 N 9.2848 -0.8234 0 0
M  V30 2 N 3.9069 -0.77 0 0
M  V30 3 C 10.6801 1.5721 0 0
M  V30 4 C 9.2848 2.3634 0 0
M  V30 5 C 10.6801 -0.0321 0 0
M  V30 6 C 7.9081 1.54 0 0
M  V30 7 C 7.9081 0 0 0
M  V30 8 C 6.5744 -0.77 0 0
M  V30 9 C 6.5744 2.31 0 0
M  V30 10 C 9.2671 -2.3634 0 0
M  V30 11 C 5.2407 0 0 0
M  V30 12 C 5.2407 1.54 0 0
M  V30 END ATOM
M  V30 BEGIN BOND
M  V30 1 1 1 5
M  V30 2 1 1 7
M  V30 3 1 1 10
M  V30 4 1 2 11
M  V30 5 1 3 4
M  V30 6 1 3 5
M  V30 7 1 4 6
M  V30 8 2 6 7
M  V30 9 1 6 9
M  V30 10 1 7 8
M  V30 11 2 8 11
M  V30 12 2 9 12
M  V30 13 1 11 12
M  V30 END BOND
M  V30 END CTAB
M  END

> <INPUT>
C10H14N2

> <FOUND_BY>
MS Ready Formula

> <DTXCID_INDIVIDUAL_COMPONENT>
DTXCID40409811

> <FORMULA_INDIVIDUAL_COMPONENT>
C10H14N2

> <SMILES_INDIVIDUAL_COMPONENT>
CN1CCCC2=C1C=C(N)C=C2

> <MAPPED_DTXSID>
DTXSID10458992

> <PREFERRED_NAME_DTXSID>
1-Methyl-1,2,3,4-tetrahydroquinolin-7-amine

> <CASRN_DTXSID>
304690-94-6

> <FORMULA_MAPPED_DTXSID>
C10H14N2

> <SMILES_MAPPED_DTXSID>
CN1CCCC2=C1C=C(N)C=C2

> <MS_READY_SMILES>
CN1CCCC2=C1C=C(N)C=C2

> <INCHI_STRING_DTXCID>
InChI=1S/C10H14N2/c1-12-6-2-3-8-4-5-9(11)7-10(8)12/h4-5,7H,2-3,6,11H2,1H3

> <INCHIKEY_DTXCID>
OMGAOBAAEGMMTF-UHFFFAOYSA-N

> <MONOISOTOPIC_MASS_DTXCID>
162.115698459

> <EXPOCAST_MEDIAN_EXPOSURE_PREDICTION_MG/KG-BW/DAY>
-

> <EXPOCAST>
0

> <NHANES>
0

> <DATA_SOURCES>
3

> <TOXVAL_DATA>
0

> <TOXCAST_PERCENT_ACTIVE>
-

> <TOXCAST_NUMBER_OF_ASSAYS/TOTAL>
-

> <NUMBER_OF_PUBMED_ARTICLES>
-

> <PUBCHEM_DATA_SOURCES>
66

> <CPDAT_COUNT>
-

> <ATMOSPHERIC_HYDROXYLATION_RATE_(AOH)_CM3/MOLECULE*SEC_OPERA_PRED>
1.78872e-11

> <BIOCONCENTRATION_FACTOR_OPERA_PRED>
14.7174

> <BIODEGRADATION_HALF_LIFE_DAYS_DAYS_OPERA_PRED>
2.77657

> <BOILING_POINT_DEGC_OPERA_PRED>
306.973

> <HENRYS_LAW_ATM-M3/MOLE_OPERA_PRED>
2.17258e-07

> <OPERA_KM_DAYS_OPERA_PRED>
0.363691

> <OCTANOL_AIR_PARTITION_COEFF_LOGKOA_OPERA_PRED>
8.74629

> <SOIL_ADSORPTION_COEFFICIENT_KOC_L/KG_OPERA_PRED>
183.567

> <OCTANOL_WATER_PARTITION_LOGP_OPERA_PRED>
1.40884

> <MELTING_POINT_DEGC_OPERA_PRED>
126.932

> <VAPOR_PRESSURE_MMHG_OPERA_PRED>
0.000107647

> <WATER_SOLUBILITY_MOL/L_OPERA_PRED>
0.0153608

> <TEST_BCF_TEST_PRED>
13.9959

> <BOILING_POINT_DEGC_TEST_PRED>
284.119

> <DENSITY_G/CM^3_TEST_PRED>
1.099

> <FLASH_POINT_DEGC_TEST_PRED>
142.277

> <MELTING_POINT_DEGC_TEST_PRED>
97.818

> <SURFACE_TENSION_DYN/CM_TEST_PRED>
-

> <THERMAL_CONDUCTIVITY_MW/(M*K)_TEST_PRED>
155.49

> <VISCOSITY_CP_CP_TEST_PRED>
5.54626

> <VAPOR_PRESSURE_MMHG_TEST_PRED>
0.000751623

> <WATER_SOLUBILITY_MOL/L_TEST_PRED>
0.00628058

> <AEGLVALUES>
0

> <ALGALTOX>
0

> <ARCHEMICALS>
0

> <ATSDRLST>
0

> <BISPHENOLS>
0

> <OEHHA>
0

> <CERAPP>
0

> <FUNNAMES>
0

> <KWRSJERPS>
0

> <EPACONS>
0

> <IRIS>
0

> <EPAHFR>
0

> <EUCOSMETICS>
0

> <FRENCHLIST>
0

> <HEROMAP>
0

> <ITNANTIBIOTIC>
0

> <KEMIMARKET>
0

> <MASSBANKREF>
0

> <MASSBANKEUSP>
0

> <NEMILIST>
0

> <NATADB>
0

> <NIOSHIDLH>
0

> <NIOSHICSC>
0

> <NIOSHNPG>
0

> <NIOSHSKIN>
0

> <NORMANCT15>
0

> <SFISHFLUORO>
0

> <NORMANPRI>
0

> <NORMANEWS>
0

> <PFASTRIER>
0

> <SWISSPHARMA>
0

> <PPRTVWEB>
0

> <STOCKHOLM>
0

> <STOFFIDENT>
0

> <SCDM>
0

> <EAWAGSURF>
0

> <SWISSPEST>
0

> <TOX21SL>
0

> <TOXCAST>
0

> <TOXCAST_E1K>
0

> <TOXCAST_PH1V2>
0

> <TOXCAST_PH2>
0

> <TOXCAST_PH3>
0

> <TOXCAST_PHASEI>
0

> <TOXCAST_PHASEII>
0

> <TOXCAST_PHASEIII>
0

> <TRIRELEASE>
0

> <TSCASURF>
0

> <UJIBADE>
0

> <ATHENSSUS>
0

> <UATHTARGETS>
0

$$$$
456670
  Mrv1611109301620432D          

  0  0  0     0  0            999 V3000
M  V30 BEGIN CTAB
M  V30 COUNTS 12 13 0 0 0
M  V30 BEGIN ATOM
M  V30 1 N -2.0316 2.675 0 0
M  V30 2 C -0.5669 2.1991 0 0
M  V30 3 C 0.7667 2.9691 0 0
M  V30 4 C 2.1004 2.1991 0 0
M  V30 5 C 2.1004 0.6591 0 0
M  V30 6 C 0.7667 -0.1109 0 0
M  V30 7 C -0.5669 0.6591 0 0
M  V30 8 C -2.0316 0.1832 0 0
M  V30 9 C -2.5074 -1.2814 0 0
M  V30 10 C -4.0138 -1.6016 0 0
M  V30 11 N -4.4897 -3.0662 0 0
M  V30 12 C -2.9367 1.4291 0 0
M  V30 END ATOM
M  V30 BEGIN BOND
M  V30 1 1 1 2
M  V30 2 2 2 3
M  V30 3 1 3 4
M  V30 4 2 4 5
M  V30 5 1 5 6
M  V30 6 2 6 7
M  V30 7 1 7 2
M  V30 8 1 7 8
M  V30 9 1 8 9
M  V30 10 1 9 10
M  V30 11 1 10 11
M  V30 12 1 8 12
M  V30 13 1 12 1
M  V30 END BOND
M  V30 END CTAB
M  END

> <INPUT>
C10H14N2

> <FOUND_BY>
MS Ready Formula

> <DTXCID_INDIVIDUAL_COMPONENT>
DTXCID70971192

> <FORMULA_INDIVIDUAL_COMPONENT>
C10H14N2

> <SMILES_INDIVIDUAL_COMPONENT>
NCCC1CNC2=CC=CC=C12

> <MAPPED_DTXSID>
DTXSID80505861

> <PREFERRED_NAME_DTXSID>
2-(2,3-Dihydro-1H-indol-3-yl)ethan-1-amine

> <CASRN_DTXSID>
13078-91-6

> <FORMULA_MAPPED_DTXSID>
C10H14N2

> <SMILES_MAPPED_DTXSID>
NCCC1CNC2=CC=CC=C12

> <MS_READY_SMILES>
NCCC1CNC2=CC=CC=C12

> <INCHI_STRING_DTXCID>
InChI=1S/C10H14N2/c11-6-5-8-7-12-10-4-2-1-3-9(8)10/h1-4,8,12H,5-7,11H2

> <INCHIKEY_DTXCID>
ZIMNJHFFARFXNK-UHFFFAOYSA-N

> <MONOISOTOPIC_MASS_DTXCID>
162.115698459

> <EXPOCAST_MEDIAN_EXPOSURE_PREDICTION_MG/KG-BW/DAY>
-

> <EXPOCAST>
0

> <NHANES>
0

> <DATA_SOURCES>
3

> <TOXVAL_DATA>
0

> <TOXCAST_PERCENT_ACTIVE>
-

> <TOXCAST_NUMBER_OF_ASSAYS/TOTAL>
-

> <NUMBER_OF_PUBMED_ARTICLES>
-

> <PUBCHEM_DATA_SOURCES>
37

> <CPDAT_COUNT>
-

> <ATMOSPHERIC_HYDROXYLATION_RATE_(AOH)_CM3/MOLECULE*SEC_OPERA_PRED>
1.53273e-11

> <BIOCONCENTRATION_FACTOR_OPERA_PRED>
5.68907

> <BIODEGRADATION_HALF_LIFE_DAYS_DAYS_OPERA_PRED>
3.94829

> <BOILING_POINT_DEGC_OPERA_PRED>
261.067

> <HENRYS_LAW_ATM-M3/MOLE_OPERA_PRED>
6.67678e-08

> <OPERA_KM_DAYS_OPERA_PRED>
0.129739

> <OCTANOL_AIR_PARTITION_COEFF_LOGKOA_OPERA_PRED>
7.9582

> <SOIL_ADSORPTION_COEFFICIENT_KOC_L/KG_OPERA_PRED>
151.741

> <OCTANOL_WATER_PARTITION_LOGP_OPERA_PRED>
1.6771

> <MELTING_POINT_DEGC_OPERA_PRED>
108.839

> <VAPOR_PRESSURE_MMHG_OPERA_PRED>
3.59891e-05

> <WATER_SOLUBILITY_MOL/L_OPERA_PRED>
0.226988

> <TEST_BCF_TEST_PRED>
7.51623

> <BOILING_POINT_DEGC_TEST_PRED>
288.254

> <DENSITY_G/CM^3_TEST_PRED>
1.067

> <FLASH_POINT_DEGC_TEST_PRED>
158.833

> <MELTING_POINT_DEGC_TEST_PRED>
100.909

> <SURFACE_TENSION_DYN/CM_TEST_PRED>
-

> <THERMAL_CONDUCTIVITY_MW/(M*K)_TEST_PRED>
179.795

> <VISCOSITY_CP_CP_TEST_PRED>
11.6413

> <VAPOR_PRESSURE_MMHG_TEST_PRED>
6.06736e-05

> <WATER_SOLUBILITY_MOL/L_TEST_PRED>
0.0169434

> <AEGLVALUES>
0

> <ALGALTOX>
0

> <ARCHEMICALS>
0

> <ATSDRLST>
0

> <BISPHENOLS>
0

> <OEHHA>
0

> <CERAPP>
0

> <FUNNAMES>
0

> <KWRSJERPS>
0

> <EPACONS>
0

> <IRIS>
0

> <EPAHFR>
0

> <EUCOSMETICS>
0

> <FRENCHLIST>
0

> <HEROMAP>
0

> <ITNANTIBIOTIC>
0

> <KEMIMARKET>
0

> <MASSBANKREF>
0

> <MASSBANKEUSP>
0

> <NEMILIST>
0

> <NATADB>
0

> <NIOSHIDLH>
0

> <NIOSHICSC>
0

> <NIOSHNPG>
0

> <NIOSHSKIN>
0

> <NORMANCT15>
0

> <SFISHFLUORO>
0

> <NORMANPRI>
0

> <NORMANEWS>
0

> <PFASTRIER>
0

> <SWISSPHARMA>
0

> <PPRTVWEB>
0

> <STOCKHOLM>
0

> <STOFFIDENT>
0

> <SCDM>
0

> <EAWAGSURF>
0

> <SWISSPEST>
0

> <TOX21SL>
0

> <TOXCAST>
0

> <TOXCAST_E1K>
0

> <TOXCAST_PH1V2>
0

> <TOXCAST_PH2>
0

> <TOXCAST_PH3>
0

> <TOXCAST_PHASEI>
0

> <TOXCAST_PHASEII>
0

> <TOXCAST_PHASEIII>
0

> <TRIRELEASE>
0

> <TSCASURF>
0

> <UJIBADE>
0

> <ATHENSSUS>
0

> <UATHTARGETS>
0

$$$$

  Mrv1533009301520012D          

  0  0  0     0  0            999 V3000
M  V30 BEGIN CTAB
M  V30 COUNTS 12 13 0 0 0
M  V30 BEGIN ATOM
M  V30 1 N 6.5742 1.8327 0 0
M  V30 2 N 3.9067 1.8327 0 0
M  V30 3 C 10.6799 -0.5094 0 0
M  V30 4 C 9.2846 -1.3009 0 0
M  V30 5 C 10.6799 1.0946 0 0
M  V30 6 C 7.9079 -0.4775 0 0
M  V30 7 C 9.2846 1.8861 0 0
M  V30 8 C 7.9079 1.0625 0 0
M  V30 9 C 6.5742 -1.2475 0 0
M  V30 10 C 5.2407 -0.4775 0 0
M  V30 11 C 5.2407 1.0625 0 0
M  V30 12 C 6.5742 -2.7875 0 0
M  V30 END ATOM
M  V30 BEGIN BOND
M  V30 1 1 1 8
M  V30 2 2 1 11
M  V30 3 1 2 11
M  V30 4 1 3 4
M  V30 5 1 3 5
M  V30 6 1 4 6
M  V30 7 1 5 7
M  V30 8 2 6 8
M  V30 9 1 6 9
M  V30 10 1 7 8
M  V30 11 2 9 10
M  V30 12 1 9 12
M  V30 13 1 10 11
M  V30 END BOND
M  V30 END CTAB
M  END

> <INPUT>
C10H14N2

> <FOUND_BY>
MS Ready Formula

> <DTXCID_INDIVIDUAL_COMPONENT>
DTXCID50569379

> <FORMULA_INDIVIDUAL_COMPONENT>
C10H14N2

> <SMILES_INDIVIDUAL_COMPONENT>
CC1=CC(N)=NC2=C1CCCC2

> <MAPPED_DTXSID>
DTXSID60618625

> <PREFERRED_NAME_DTXSID>
4-Methyl-5,6,7,8-tetrahydroquinolin-2-amine

> <CASRN_DTXSID>
179555-21-6

> <FORMULA_MAPPED_DTXSID>
C10H14N2

> <SMILES_MAPPED_DTXSID>
CC1=CC(N)=NC2=C1CCCC2

> <MS_READY_SMILES>
CC1=CC(N)=NC2=C1CCCC2

> <INCHI_STRING_DTXCID>
InChI=1S/C10H14N2/c1-7-6-10(11)12-9-5-3-2-4-8(7)9/h6H,2-5H2,1H3,(H2,11,12)

> <INCHIKEY_DTXCID>
RGCUFPWLSHCPCA-UHFFFAOYSA-N

> <MONOISOTOPIC_MASS_DTXCID>
162.115698459

> <EXPOCAST_MEDIAN_EXPOSURE_PREDICTION_MG/KG-BW/DAY>
-

> <EXPOCAST>
0

> <NHANES>
0

> <DATA_SOURCES>
3

> <TOXVAL_DATA>
0

> <TOXCAST_PERCENT_ACTIVE>
-

> <TOXCAST_NUMBER_OF_ASSAYS/TOTAL>
-

> <NUMBER_OF_PUBMED_ARTICLES>
-

> <PUBCHEM_DATA_SOURCES>
20

> <CPDAT_COUNT>
-

> <ATMOSPHERIC_HYDROXYLATION_RATE_(AOH)_CM3/MOLECULE*SEC_OPERA_PRED>
1.52986e-11

> <BIOCONCENTRATION_FACTOR_OPERA_PRED>
14.3833

> <BIODEGRADATION_HALF_LIFE_DAYS_DAYS_OPERA_PRED>
3.96954

> <BOILING_POINT_DEGC_OPERA_PRED>
299.084

> <HENRYS_LAW_ATM-M3/MOLE_OPERA_PRED>
2.37569e-07

> <OPERA_KM_DAYS_OPERA_PRED>
0.358172

> <OCTANOL_AIR_PARTITION_COEFF_LOGKOA_OPERA_PRED>
8.7887

> <SOIL_ADSORPTION_COEFFICIENT_KOC_L/KG_OPERA_PRED>
112.69

> <OCTANOL_WATER_PARTITION_LOGP_OPERA_PRED>
1.38573

> <MELTING_POINT_DEGC_OPERA_PRED>
126.362

> <VAPOR_PRESSURE_MMHG_OPERA_PRED>
2.46298e-05

> <WATER_SOLUBILITY_MOL/L_OPERA_PRED>
0.00897897

> <TEST_BCF_TEST_PRED>
14.2889

> <BOILING_POINT_DEGC_TEST_PRED>
296.827

> <DENSITY_G/CM^3_TEST_PRED>
1.118

> <FLASH_POINT_DEGC_TEST_PRED>
149.668

> <MELTING_POINT_DEGC_TEST_PRED>
93.841

> <SURFACE_TENSION_DYN/CM_TEST_PRED>
-

> <THERMAL_CONDUCTIVITY_MW/(M*K)_TEST_PRED>
152.005

> <VISCOSITY_CP_CP_TEST_PRED>
9.57194

> <VAPOR_PRESSURE_MMHG_TEST_PRED>
0.00028774

> <WATER_SOLUBILITY_MOL/L_TEST_PRED>
0.00325087

> <AEGLVALUES>
0

> <ALGALTOX>
0

> <ARCHEMICALS>
0

> <ATSDRLST>
0

> <BISPHENOLS>
0

> <OEHHA>
0

> <CERAPP>
0

> <FUNNAMES>
0

> <KWRSJERPS>
0

> <EPACONS>
0

> <IRIS>
0

> <EPAHFR>
0

> <EUCOSMETICS>
0

> <FRENCHLIST>
0

> <HEROMAP>
0

> <ITNANTIBIOTIC>
0

> <KEMIMARKET>
0

> <MASSBANKREF>
0

> <MASSBANKEUSP>
0

> <NEMILIST>
0

> <NATADB>
0

> <NIOSHIDLH>
0

> <NIOSHICSC>
0

> <NIOSHNPG>
0

> <NIOSHSKIN>
0

> <NORMANCT15>
0

> <SFISHFLUORO>
0

> <NORMANPRI>
0

> <NORMANEWS>
0

> <PFASTRIER>
0

> <SWISSPHARMA>
0

> <PPRTVWEB>
0

> <STOCKHOLM>
0

> <STOFFIDENT>
0

> <SCDM>
0

> <EAWAGSURF>
0

> <SWISSPEST>
0

> <TOX21SL>
0

> <TOXCAST>
0

> <TOXCAST_E1K>
0

> <TOXCAST_PH1V2>
0

> <TOXCAST_PH2>
0

> <TOXCAST_PH3>
0

> <TOXCAST_PHASEI>
0

> <TOXCAST_PHASEII>
0

> <TOXCAST_PHASEIII>
0

> <TRIRELEASE>
0

> <TSCASURF>
0

> <UJIBADE>
0

> <ATHENSSUS>
0

> <UATHTARGETS>
0

$$$$

  Mrv1611108211713492D          

  0  0  0     0  0            999 V3000
M  V30 BEGIN CTAB
M  V30 COUNTS 12 13 0 0 0
M  V30 BEGIN ATOM
M  V30 1 N 5.3343 -2.0521 0 0
M  V30 2 C 4.0583 -2.9401 0 0
M  V30 3 C 2.6507 -2.3152 0 0
M  V30 4 N 1.3352 0 0 0
M  V30 5 C 2.6507 -0.7762 0 0
M  V30 6 C 6.5774 -2.927 0 0
M  V30 7 C 5.3343 -0.4801 0 0
M  V30 8 C 4.5581 -4.4069 0 0
M  V30 9 C 6.1301 -4.4069 0 0
M  V30 10 C 1.3352 -3.0717 0 0
M  V30 11 C 0 -0.7565 0 0
M  V30 12 C 0 -2.3152 0 0
M  V30 END ATOM
M  V30 BEGIN BOND
M  V30 1 1 1 2
M  V30 2 1 1 6
M  V30 3 1 1 7
M  V30 4 1 2 3
M  V30 5 1 2 8
M  V30 6 2 3 5
M  V30 7 1 3 10
M  V30 8 1 4 5
M  V30 9 2 4 11
M  V30 10 1 6 9
M  V30 11 1 8 9
M  V30 12 2 10 12
M  V30 13 1 11 12
M  V30 END BOND
M  V30 END CTAB
M  END

> <INPUT>
C10H14N2

> <FOUND_BY>
MS Ready Formula

> <DTXCID_INDIVIDUAL_COMPONENT>
DTXCID9028128

> <FORMULA_INDIVIDUAL_COMPONENT>
C10H14N2

> <SMILES_INDIVIDUAL_COMPONENT>
CN1CCCC1C1=CN=CC=C1

> <MAPPED_DTXSID>
DTXSID80740634

> <PREFERRED_NAME_DTXSID>
Acetic acid--3-[(2S)-1-methylpyrrolidin-2-yl]pyridine (1/1)

> <CASRN_DTXSID>
5153-64-0

> <FORMULA_MAPPED_DTXSID>
C12H18N2O2

> <SMILES_MAPPED_DTXSID>
CC(O)=O.CN1CCC[C@H]1C1=CN=CC=C1

> <MS_READY_SMILES>
CN1CCCC1C1=CN=CC=C1,CC(O)=O

> <INCHI_STRING_DTXCID>
InChI=1S/C10H14N2/c1-12-7-3-5-10(12)9-4-2-6-11-8-9/h2,4,6,8,10H,3,5,7H2,1H3

> <INCHIKEY_DTXCID>
SNICXCGAKADSCV-UHFFFAOYSA-N

> <MONOISOTOPIC_MASS_DTXCID>
162.115698459

> <EXPOCAST_MEDIAN_EXPOSURE_PREDICTION_MG/KG-BW/DAY>
-

> <EXPOCAST>
0

> <NHANES>
0

> <DATA_SOURCES>
3

> <TOXVAL_DATA>
0

> <TOXCAST_PERCENT_ACTIVE>
-

> <TOXCAST_NUMBER_OF_ASSAYS/TOTAL>
-

> <NUMBER_OF_PUBMED_ARTICLES>
-

> <PUBCHEM_DATA_SOURCES>
4

> <CPDAT_COUNT>
1

> <ATMOSPHERIC_HYDROXYLATION_RATE_(AOH)_CM3/MOLECULE*SEC_OPERA_PRED>
4.3164e-11

> <BIOCONCENTRATION_FACTOR_OPERA_PRED>
6.524

> <BIODEGRADATION_HALF_LIFE_DAYS_DAYS_OPERA_PRED>
3.36018

> <BOILING_POINT_DEGC_OPERA_PRED>
253.418

> <HENRYS_LAW_ATM-M3/MOLE_OPERA_PRED>
6.65993e-06

> <OPERA_KM_DAYS_OPERA_PRED>
5.93649

> <OCTANOL_AIR_PARTITION_COEFF_LOGKOA_OPERA_PRED>
5.80576

> <SOIL_ADSORPTION_COEFFICIENT_KOC_L/KG_OPERA_PRED>
110.746

> <OCTANOL_WATER_PARTITION_LOGP_OPERA_PRED>
1.17766

> <MELTING_POINT_DEGC_OPERA_PRED>
-43.292

> <VAPOR_PRESSURE_MMHG_OPERA_PRED>
0.013088

> <WATER_SOLUBILITY_MOL/L_OPERA_PRED>
4.51047

> <TEST_BCF_TEST_PRED>
11.995

> <BOILING_POINT_DEGC_TEST_PRED>
244.899

> <DENSITY_G/CM^3_TEST_PRED>
1.03

> <FLASH_POINT_DEGC_TEST_PRED>
95.541

> <MELTING_POINT_DEGC_TEST_PRED>
18.147

> <SURFACE_TENSION_DYN/CM_TEST_PRED>
36.302

> <THERMAL_CONDUCTIVITY_MW/(M*K)_TEST_PRED>
143.221

> <VISCOSITY_CP_CP_TEST_PRED>
7.2778

> <VAPOR_PRESSURE_MMHG_TEST_PRED>
0.00436516

> <WATER_SOLUBILITY_MOL/L_TEST_PRED>
0.0799834

> <AEGLVALUES>
0

> <ALGALTOX>
0

> <ARCHEMICALS>
0

> <ATSDRLST>
0

> <BISPHENOLS>
0

> <OEHHA>
0

> <CERAPP>
0

> <FUNNAMES>
0

> <KWRSJERPS>
0

> <EPACONS>
0

> <IRIS>
0

> <EPAHFR>
0

> <EUCOSMETICS>
0

> <FRENCHLIST>
0

> <HEROMAP>
0

> <ITNANTIBIOTIC>
0

> <KEMIMARKET>
0

> <MASSBANKREF>
0

> <MASSBANKEUSP>
0

> <NEMILIST>
0

> <NATADB>
0

> <NIOSHIDLH>
0

> <NIOSHICSC>
0

> <NIOSHNPG>
0

> <NIOSHSKIN>
0

> <NORMANCT15>
0

> <SFISHFLUORO>
0

> <NORMANPRI>
0

> <NORMANEWS>
0

> <PFASTRIER>
0

> <SWISSPHARMA>
0

> <PPRTVWEB>
0

> <STOCKHOLM>
0

> <STOFFIDENT>
0

> <SCDM>
0

> <EAWAGSURF>
0

> <SWISSPEST>
0

> <TOX21SL>
0

> <TOXCAST>
0

> <TOXCAST_E1K>
0

> <TOXCAST_PH1V2>
0

> <TOXCAST_PH2>
0

> <TOXCAST_PH3>
0

> <TOXCAST_PHASEI>
0

> <TOXCAST_PHASEII>
0

> <TOXCAST_PHASEIII>
0

> <TRIRELEASE>
0

> <TSCASURF>
0

> <UJIBADE>
0

> <ATHENSSUS>
0

> <UATHTARGETS>
0

$$$$

  Mrv1611108211713492D          

  0  0  0     0  0            999 V3000
M  V30 BEGIN CTAB
M  V30 COUNTS 12 13 0 0 0
M  V30 BEGIN ATOM
M  V30 1 N 5.3343 -2.0521 0 0
M  V30 2 C 4.0583 -2.9401 0 0
M  V30 3 C 2.6507 -2.3152 0 0
M  V30 4 N 1.3352 0 0 0
M  V30 5 C 2.6507 -0.7762 0 0
M  V30 6 C 6.5774 -2.927 0 0
M  V30 7 C 5.3343 -0.4801 0 0
M  V30 8 C 4.5581 -4.4069 0 0
M  V30 9 C 6.1301 -4.4069 0 0
M  V30 10 C 1.3352 -3.0717 0 0
M  V30 11 C 0 -0.7565 0 0
M  V30 12 C 0 -2.3152 0 0
M  V30 END ATOM
M  V30 BEGIN BOND
M  V30 1 1 1 2
M  V30 2 1 1 6
M  V30 3 1 1 7
M  V30 4 1 2 3
M  V30 5 1 2 8
M  V30 6 2 3 5
M  V30 7 1 3 10
M  V30 8 1 4 5
M  V30 9 2 4 11
M  V30 10 1 6 9
M  V30 11 1 8 9
M  V30 12 2 10 12
M  V30 13 1 11 12
M  V30 END BOND
M  V30 END CTAB
M  END

> <INPUT>
C10H14N2

> <FOUND_BY>
MS Ready Formula

> <DTXCID_INDIVIDUAL_COMPONENT>
DTXCID9028128

> <FORMULA_INDIVIDUAL_COMPONENT>
C10H14N2

> <SMILES_INDIVIDUAL_COMPONENT>
CN1CCCC1C1=CN=CC=C1

> <MAPPED_DTXSID>
DTXSID10858175

> <PREFERRED_NAME_DTXSID>
(2R,3R)-2,3-Bis[(4-methylbenzoyl)oxy]butanedioic acid--3-[(2S)-1-methylpyrrolidin-2-yl]pyridine (1/1)

> <CASRN_DTXSID>
68935-26-2

> <FORMULA_MAPPED_DTXSID>
C30H32N2O8

> <SMILES_MAPPED_DTXSID>
CN1CCC[C@H]1C1=CN=CC=C1.CC1=CC=C(C=C1)C(=O)O[C@H]([C@@H](OC(=O)C1=CC=C(C)C=C1)C(O)=O)C(O)=O

> <MS_READY_SMILES>
Cc1ccc(cc1)C(=O)OC(C(OC(=O)c1ccc(C)cc1)C(O)=O)C(O)=O,CN1CCCC1C1=CN=CC=C1

> <INCHI_STRING_DTXCID>
InChI=1S/C10H14N2/c1-12-7-3-5-10(12)9-4-2-6-11-8-9/h2,4,6,8,10H,3,5,7H2,1H3

> <INCHIKEY_DTXCID>
SNICXCGAKADSCV-UHFFFAOYSA-N

> <MONOISOTOPIC_MASS_DTXCID>
162.115698459

> <EXPOCAST_MEDIAN_EXPOSURE_PREDICTION_MG/KG-BW/DAY>
-

> <EXPOCAST>
0

> <NHANES>
0

> <DATA_SOURCES>
3

> <TOXVAL_DATA>
0

> <TOXCAST_PERCENT_ACTIVE>
-

> <TOXCAST_NUMBER_OF_ASSAYS/TOTAL>
-

> <NUMBER_OF_PUBMED_ARTICLES>
-

> <PUBCHEM_DATA_SOURCES>
4

> <CPDAT_COUNT>
1

> <ATMOSPHERIC_HYDROXYLATION_RATE_(AOH)_CM3/MOLECULE*SEC_OPERA_PRED>
-

> <BIOCONCENTRATION_FACTOR_OPERA_PRED>
-

> <BIODEGRADATION_HALF_LIFE_DAYS_DAYS_OPERA_PRED>
-

> <BOILING_POINT_DEGC_OPERA_PRED>
-

> <HENRYS_LAW_ATM-M3/MOLE_OPERA_PRED>
-

> <OPERA_KM_DAYS_OPERA_PRED>
-

> <OCTANOL_AIR_PARTITION_COEFF_LOGKOA_OPERA_PRED>
-

> <SOIL_ADSORPTION_COEFFICIENT_KOC_L/KG_OPERA_PRED>
-

> <OCTANOL_WATER_PARTITION_LOGP_OPERA_PRED>
-

> <MELTING_POINT_DEGC_OPERA_PRED>
-

> <VAPOR_PRESSURE_MMHG_OPERA_PRED>
-

> <WATER_SOLUBILITY_MOL/L_OPERA_PRED>
-

> <TEST_BCF_TEST_PRED>
-

> <BOILING_POINT_DEGC_TEST_PRED>
-

> <DENSITY_G/CM^3_TEST_PRED>
-

> <FLASH_POINT_DEGC_TEST_PRED>
-

> <MELTING_POINT_DEGC_TEST_PRED>
-

> <SURFACE_TENSION_DYN/CM_TEST_PRED>
-

> <THERMAL_CONDUCTIVITY_MW/(M*K)_TEST_PRED>
-

> <VISCOSITY_CP_CP_TEST_PRED>
-

> <VAPOR_PRESSURE_MMHG_TEST_PRED>
-

> <WATER_SOLUBILITY_MOL/L_TEST_PRED>
-

> <AEGLVALUES>
0

> <ALGALTOX>
0

> <ARCHEMICALS>
0

> <ATSDRLST>
0

> <BISPHENOLS>
0

> <OEHHA>
0

> <CERAPP>
0

> <FUNNAMES>
0

> <KWRSJERPS>
0

> <EPACONS>
0

> <IRIS>
0

> <EPAHFR>
0

> <EUCOSMETICS>
0

> <FRENCHLIST>
0

> <HEROMAP>
0

> <ITNANTIBIOTIC>
0

> <KEMIMARKET>
0

> <MASSBANKREF>
0

> <MASSBANKEUSP>
0

> <NEMILIST>
0

> <NATADB>
0

> <NIOSHIDLH>
0

> <NIOSHICSC>
0

> <NIOSHNPG>
0

> <NIOSHSKIN>
0

> <NORMANCT15>
0

> <SFISHFLUORO>
0

> <NORMANPRI>
0

> <NORMANEWS>
0

> <PFASTRIER>
0

> <SWISSPHARMA>
0

> <PPRTVWEB>
0

> <STOCKHOLM>
0

> <STOFFIDENT>
0

> <SCDM>
0

> <EAWAGSURF>
0

> <SWISSPEST>
0

> <TOX21SL>
0

> <TOXCAST>
0

> <TOXCAST_E1K>
0

> <TOXCAST_PH1V2>
0

> <TOXCAST_PH2>
0

> <TOXCAST_PH3>
0

> <TOXCAST_PHASEI>
0

> <TOXCAST_PHASEII>
0

> <TOXCAST_PHASEIII>
0

> <TRIRELEASE>
0

> <TSCASURF>
0

> <UJIBADE>
0

> <ATHENSSUS>
0

> <UATHTARGETS>
0

$$$$
540761
  Mrv1611109291613502D          

  0  0  0     0  0            999 V3000
M  V30 BEGIN CTAB
M  V30 COUNTS 12 13 0 0 0
M  V30 BEGIN ATOM
M  V30 1 N 3.1658 -0.3464 0 0
M  V30 2 C 3.1658 -1.8864 0 0
M  V30 3 C 1.8321 -2.6564 0 0
M  V30 4 N 0.4984 -1.8864 0 0
M  V30 5 C 0.4984 -0.3464 0 0
M  V30 6 C 1.8321 0.4236 0 0
M  V30 7 C 1.8321 1.9636 0 0
M  V30 8 C 0.4984 2.7336 0 0
M  V30 9 C 0.4984 4.2735 0 0
M  V30 10 C 1.8321 5.0435 0 0
M  V30 11 C 3.1658 4.2735 0 0
M  V30 12 C 3.1658 2.7336 0 0
M  V30 END ATOM
M  V30 BEGIN BOND
M  V30 1 1 1 2
M  V30 2 1 2 3
M  V30 3 1 3 4
M  V30 4 1 4 5
M  V30 5 1 5 6
M  V30 6 1 6 1
M  V30 7 1 6 7
M  V30 8 2 7 8
M  V30 9 1 8 9
M  V30 10 2 9 10
M  V30 11 1 10 11
M  V30 12 2 11 12
M  V30 13 1 12 7
M  V30 END BOND
M  V30 END CTAB
M  END

> <INPUT>
C10H14N2

> <FOUND_BY>
MS Ready Formula

> <DTXCID_INDIVIDUAL_COMPONENT>
DTXCID80862360

> <FORMULA_INDIVIDUAL_COMPONENT>
C10H14N2

> <SMILES_INDIVIDUAL_COMPONENT>
C1CNC(CN1)C1=CC=CC=C1

> <MAPPED_DTXSID>
DTXSID60290682

> <PREFERRED_NAME_DTXSID>
2-Phenylpiperazine

> <CASRN_DTXSID>
5271-26-1

> <FORMULA_MAPPED_DTXSID>
C10H14N2

> <SMILES_MAPPED_DTXSID>
C1CNC(CN1)C1=CC=CC=C1

> <MS_READY_SMILES>
C1CNC(CN1)C1=CC=CC=C1

> <INCHI_STRING_DTXCID>
InChI=1S/C10H14N2/c1-2-4-9(5-3-1)10-8-11-6-7-12-10/h1-5,10-12H,6-8H2

> <INCHIKEY_DTXCID>
RIMRLBGNCLMSNH-UHFFFAOYSA-N

> <MONOISOTOPIC_MASS_DTXCID>
162.115698459

> <EXPOCAST_MEDIAN_EXPOSURE_PREDICTION_MG/KG-BW/DAY>
-

> <EXPOCAST>
0

> <NHANES>
0

> <DATA_SOURCES>
2

> <TOXVAL_DATA>
0

> <TOXCAST_PERCENT_ACTIVE>
-

> <TOXCAST_NUMBER_OF_ASSAYS/TOTAL>
-

> <NUMBER_OF_PUBMED_ARTICLES>
-

> <PUBCHEM_DATA_SOURCES>
87

> <CPDAT_COUNT>
-

> <ATMOSPHERIC_HYDROXYLATION_RATE_(AOH)_CM3/MOLECULE*SEC_OPERA_PRED>
1.75998e-11

> <BIOCONCENTRATION_FACTOR_OPERA_PRED>
7.14211

> <BIODEGRADATION_HALF_LIFE_DAYS_DAYS_OPERA_PRED>
4.83648

> <BOILING_POINT_DEGC_OPERA_PRED>
265.828

> <HENRYS_LAW_ATM-M3/MOLE_OPERA_PRED>
1.36966e-07

> <OPERA_KM_DAYS_OPERA_PRED>
0.159639

> <OCTANOL_AIR_PARTITION_COEFF_LOGKOA_OPERA_PRED>
7.92166

> <SOIL_ADSORPTION_COEFFICIENT_KOC_L/KG_OPERA_PRED>
130.216

> <OCTANOL_WATER_PARTITION_LOGP_OPERA_PRED>
1.33585

> <MELTING_POINT_DEGC_OPERA_PRED>
78.4524

> <VAPOR_PRESSURE_MMHG_OPERA_PRED>
0.0119944

> <WATER_SOLUBILITY_MOL/L_OPERA_PRED>
0.194638

> <TEST_BCF_TEST_PRED>
6.9024

> <BOILING_POINT_DEGC_TEST_PRED>
273.316

> <DENSITY_G/CM^3_TEST_PRED>
1.023

> <FLASH_POINT_DEGC_TEST_PRED>
112.182

> <MELTING_POINT_DEGC_TEST_PRED>
53.053

> <SURFACE_TENSION_DYN/CM_TEST_PRED>
37.045

> <THERMAL_CONDUCTIVITY_MW/(M*K)_TEST_PRED>
173.03

> <VISCOSITY_CP_CP_TEST_PRED>
14.9968

> <VAPOR_PRESSURE_MMHG_TEST_PRED>
0.00106905

> <WATER_SOLUBILITY_MOL/L_TEST_PRED>
0.0500035

> <AEGLVALUES>
0

> <ALGALTOX>
0

> <ARCHEMICALS>
0

> <ATSDRLST>
0

> <BISPHENOLS>
0

> <OEHHA>
0

> <CERAPP>
0

> <FUNNAMES>
0

> <KWRSJERPS>
0

> <EPACONS>
0

> <IRIS>
0

> <EPAHFR>
0

> <EUCOSMETICS>
0

> <FRENCHLIST>
0

> <HEROMAP>
0

> <ITNANTIBIOTIC>
0

> <KEMIMARKET>
0

> <MASSBANKREF>
0

> <MASSBANKEUSP>
0

> <NEMILIST>
0

> <NATADB>
0

> <NIOSHIDLH>
0

> <NIOSHICSC>
0

> <NIOSHNPG>
0

> <NIOSHSKIN>
0

> <NORMANCT15>
0

> <SFISHFLUORO>
0

> <NORMANPRI>
0

> <NORMANEWS>
0

> <PFASTRIER>
0

> <SWISSPHARMA>
0

> <PPRTVWEB>
0

> <STOCKHOLM>
0

> <STOFFIDENT>
0

> <SCDM>
0

> <EAWAGSURF>
0

> <SWISSPEST>
0

> <TOX21SL>
0

> <TOXCAST>
0

> <TOXCAST_E1K>
0

> <TOXCAST_PH1V2>
0

> <TOXCAST_PH2>
0

> <TOXCAST_PH3>
0

> <TOXCAST_PHASEI>
0

> <TOXCAST_PHASEII>
0

> <TOXCAST_PHASEIII>
0

> <TRIRELEASE>
0

> <TSCASURF>
0

> <UJIBADE>
0

> <ATHENSSUS>
0

> <UATHTARGETS>
0

$$$$

  Mrv1533009301517252D          

  0  0  0     0  0            999 V3000
M  V30 BEGIN CTAB
M  V30 COUNTS 12 13 0 0 0
M  V30 BEGIN ATOM
M  V30 1 C 2.3066 -6.6665 0 0
M  V30 2 C 3.0799 -5.3332 0 0
M  V30 3 N 2.3066 -3.9999 0 0
M  V30 4 C 0.7667 -3.9999 0 0
M  V30 5 C 0 -5.3332 0 0
M  V30 6 N 0.7667 -6.6665 0 0
M  V30 7 C 3.0799 -2.6665 0 0
M  V30 8 C 4.6199 -2.6665 0 0
M  V30 9 C 5.3866 -1.3333 0 0
M  V30 10 C 4.6199 0 0 0
M  V30 11 C 3.0799 0 0 0
M  V30 12 C 2.3066 -1.3333 0 0
M  V30 END ATOM
M  V30 BEGIN BOND
M  V30 1 1 1 2
M  V30 2 1 1 6
M  V30 3 1 2 3
M  V30 4 1 3 4
M  V30 5 1 3 7
M  V30 6 1 4 5
M  V30 7 1 5 6
M  V30 8 2 7 8
M  V30 9 1 7 12
M  V30 10 1 8 9
M  V30 11 2 9 10
M  V30 12 1 10 11
M  V30 13 2 11 12
M  V30 END BOND
M  V30 END CTAB
M  END

> <INPUT>
C10H14N2

> <FOUND_BY>
MS Ready Formula

> <DTXCID_INDIVIDUAL_COMPONENT>
DTXCID9031644

> <FORMULA_INDIVIDUAL_COMPONENT>
C10H14N2

> <SMILES_INDIVIDUAL_COMPONENT>
C1CN(CCN1)C1=CC=CC=C1

> <MAPPED_DTXSID>
DTXSID00293011

> <PREFERRED_NAME_DTXSID>
1-phenylpiperazine benzoate(1:1)

> <CASRN_DTXSID>
23245-25-2

> <FORMULA_MAPPED_DTXSID>
C17H20N2O2

> <SMILES_MAPPED_DTXSID>
OC(=O)C1=CC=CC=C1.C1CN(CCN1)C1=CC=CC=C1

> <MS_READY_SMILES>
C1CN(CCN1)C1=CC=CC=C1,OC(=O)C1=CC=CC=C1

> <INCHI_STRING_DTXCID>
InChI=1S/C10H14N2/c1-2-4-10(5-3-1)12-8-6-11-7-9-12/h1-5,11H,6-9H2

> <INCHIKEY_DTXCID>
YZTJYBJCZXZGCT-UHFFFAOYSA-N

> <MONOISOTOPIC_MASS_DTXCID>
162.115698459

> <EXPOCAST_MEDIAN_EXPOSURE_PREDICTION_MG/KG-BW/DAY>
-

> <EXPOCAST>
0

> <NHANES>
0

> <DATA_SOURCES>
2

> <TOXVAL_DATA>
0

> <TOXCAST_PERCENT_ACTIVE>
-

> <TOXCAST_NUMBER_OF_ASSAYS/TOTAL>
-

> <NUMBER_OF_PUBMED_ARTICLES>
-

> <PUBCHEM_DATA_SOURCES>
12

> <CPDAT_COUNT>
-

> <ATMOSPHERIC_HYDROXYLATION_RATE_(AOH)_CM3/MOLECULE*SEC_OPERA_PRED>
1.75521e-11

> <BIOCONCENTRATION_FACTOR_OPERA_PRED>
6.19709

> <BIODEGRADATION_HALF_LIFE_DAYS_DAYS_OPERA_PRED>
12.0774

> <BOILING_POINT_DEGC_OPERA_PRED>
288.087

> <HENRYS_LAW_ATM-M3/MOLE_OPERA_PRED>
2.60688e-07

> <OPERA_KM_DAYS_OPERA_PRED>
0.30067

> <OCTANOL_AIR_PARTITION_COEFF_LOGKOA_OPERA_PRED>
8.55338

> <SOIL_ADSORPTION_COEFFICIENT_KOC_L/KG_OPERA_PRED>
160.634

> <OCTANOL_WATER_PARTITION_LOGP_OPERA_PRED>
1.21176

> <MELTING_POINT_DEGC_OPERA_PRED>
45.8924

> <VAPOR_PRESSURE_MMHG_OPERA_PRED>
0.00666262

> <WATER_SOLUBILITY_MOL/L_OPERA_PRED>
0.145931

> <TEST_BCF_TEST_PRED>
8.24138

> <BOILING_POINT_DEGC_TEST_PRED>
272.941

> <DENSITY_G/CM^3_TEST_PRED>
1.028

> <FLASH_POINT_DEGC_TEST_PRED>
118.779

> <MELTING_POINT_DEGC_TEST_PRED>
57.971

> <SURFACE_TENSION_DYN/CM_TEST_PRED>
37.464

> <THERMAL_CONDUCTIVITY_MW/(M*K)_TEST_PRED>
161.939

> <VISCOSITY_CP_CP_TEST_PRED>
7.16143

> <VAPOR_PRESSURE_MMHG_TEST_PRED>
0.00416869

> <WATER_SOLUBILITY_MOL/L_TEST_PRED>
0.0399025

> <AEGLVALUES>
0

> <ALGALTOX>
0

> <ARCHEMICALS>
0

> <ATSDRLST>
0

> <BISPHENOLS>
0

> <OEHHA>
0

> <CERAPP>
0

> <FUNNAMES>
0

> <KWRSJERPS>
0

> <EPACONS>
0

> <IRIS>
0

> <EPAHFR>
0

> <EUCOSMETICS>
0

> <FRENCHLIST>
0

> <HEROMAP>
0

> <ITNANTIBIOTIC>
0

> <KEMIMARKET>
0

> <MASSBANKREF>
0

> <MASSBANKEUSP>
0

> <NEMILIST>
0

> <NATADB>
0

> <NIOSHIDLH>
0

> <NIOSHICSC>
0

> <NIOSHNPG>
0

> <NIOSHSKIN>
0

> <NORMANCT15>
0

> <SFISHFLUORO>
0

> <NORMANPRI>
0

> <NORMANEWS>
0

> <PFASTRIER>
0

> <SWISSPHARMA>
0

> <PPRTVWEB>
0

> <STOCKHOLM>
0

> <STOFFIDENT>
0

> <SCDM>
0

> <EAWAGSURF>
0

> <SWISSPEST>
0

> <TOX21SL>
0

> <TOXCAST>
0

> <TOXCAST_E1K>
0

> <TOXCAST_PH1V2>
0

> <TOXCAST_PH2>
0

> <TOXCAST_PH3>
0

> <TOXCAST_PHASEI>
0

> <TOXCAST_PHASEII>
0

> <TOXCAST_PHASEIII>
0

> <TRIRELEASE>
0

> <TSCASURF>
0

> <UJIBADE>
0

> <ATHENSSUS>
0

> <UATHTARGETS>
0

$$$$

  Mrv1533009301517252D          

  0  0  0     0  0            999 V3000
M  V30 BEGIN CTAB
M  V30 COUNTS 12 13 0 0 0
M  V30 BEGIN ATOM
M  V30 1 C 2.3066 -6.6665 0 0
M  V30 2 C 3.0799 -5.3332 0 0
M  V30 3 N 2.3066 -3.9999 0 0
M  V30 4 C 0.7667 -3.9999 0 0
M  V30 5 C 0 -5.3332 0 0
M  V30 6 N 0.7667 -6.6665 0 0
M  V30 7 C 3.0799 -2.6665 0 0
M  V30 8 C 4.6199 -2.6665 0 0
M  V30 9 C 5.3866 -1.3333 0 0
M  V30 10 C 4.6199 0 0 0
M  V30 11 C 3.0799 0 0 0
M  V30 12 C 2.3066 -1.3333 0 0
M  V30 END ATOM
M  V30 BEGIN BOND
M  V30 1 1 1 2
M  V30 2 1 1 6
M  V30 3 1 2 3
M  V30 4 1 3 4
M  V30 5 1 3 7
M  V30 6 1 4 5
M  V30 7 1 5 6
M  V30 8 2 7 8
M  V30 9 1 7 12
M  V30 10 1 8 9
M  V30 11 2 9 10
M  V30 12 1 10 11
M  V30 13 2 11 12
M  V30 END BOND
M  V30 END CTAB
M  END

> <INPUT>
C10H14N2

> <FOUND_BY>
MS Ready Formula

> <DTXCID_INDIVIDUAL_COMPONENT>
DTXCID9031644

> <FORMULA_INDIVIDUAL_COMPONENT>
C10H14N2

> <SMILES_INDIVIDUAL_COMPONENT>
C1CN(CCN1)C1=CC=CC=C1

> <MAPPED_DTXSID>
DTXSID60293012

> <PREFERRED_NAME_DTXSID>
4-aminobenzoic acid- 1-phenylpiperazine(1:1)

> <CASRN_DTXSID>
23245-22-9

> <FORMULA_MAPPED_DTXSID>
C17H21N3O2

> <SMILES_MAPPED_DTXSID>
NC1=CC=C(C=C1)C(O)=O.C1CN(CCN1)C1=CC=CC=C1

> <MS_READY_SMILES>
C1CN(CCN1)C1=CC=CC=C1,NC1=CC=C(C=C1)C(O)=O

> <INCHI_STRING_DTXCID>
InChI=1S/C10H14N2/c1-2-4-10(5-3-1)12-8-6-11-7-9-12/h1-5,11H,6-9H2

> <INCHIKEY_DTXCID>
YZTJYBJCZXZGCT-UHFFFAOYSA-N

> <MONOISOTOPIC_MASS_DTXCID>
162.115698459

> <EXPOCAST_MEDIAN_EXPOSURE_PREDICTION_MG/KG-BW/DAY>
-

> <EXPOCAST>
0

> <NHANES>
0

> <DATA_SOURCES>
2

> <TOXVAL_DATA>
0

> <TOXCAST_PERCENT_ACTIVE>
-

> <TOXCAST_NUMBER_OF_ASSAYS/TOTAL>
-

> <NUMBER_OF_PUBMED_ARTICLES>
-

> <PUBCHEM_DATA_SOURCES>
10

> <CPDAT_COUNT>
-

> <ATMOSPHERIC_HYDROXYLATION_RATE_(AOH)_CM3/MOLECULE*SEC_OPERA_PRED>
-

> <BIOCONCENTRATION_FACTOR_OPERA_PRED>
-

> <BIODEGRADATION_HALF_LIFE_DAYS_DAYS_OPERA_PRED>
-

> <BOILING_POINT_DEGC_OPERA_PRED>
-

> <HENRYS_LAW_ATM-M3/MOLE_OPERA_PRED>
-

> <OPERA_KM_DAYS_OPERA_PRED>
-

> <OCTANOL_AIR_PARTITION_COEFF_LOGKOA_OPERA_PRED>
-

> <SOIL_ADSORPTION_COEFFICIENT_KOC_L/KG_OPERA_PRED>
-

> <OCTANOL_WATER_PARTITION_LOGP_OPERA_PRED>
-

> <MELTING_POINT_DEGC_OPERA_PRED>
-

> <VAPOR_PRESSURE_MMHG_OPERA_PRED>
-

> <WATER_SOLUBILITY_MOL/L_OPERA_PRED>
-

> <TEST_BCF_TEST_PRED>
-

> <BOILING_POINT_DEGC_TEST_PRED>
-

> <DENSITY_G/CM^3_TEST_PRED>
-

> <FLASH_POINT_DEGC_TEST_PRED>
-

> <MELTING_POINT_DEGC_TEST_PRED>
-

> <SURFACE_TENSION_DYN/CM_TEST_PRED>
-

> <THERMAL_CONDUCTIVITY_MW/(M*K)_TEST_PRED>
-

> <VISCOSITY_CP_CP_TEST_PRED>
-

> <VAPOR_PRESSURE_MMHG_TEST_PRED>
-

> <WATER_SOLUBILITY_MOL/L_TEST_PRED>
-

> <AEGLVALUES>
0

> <ALGALTOX>
0

> <ARCHEMICALS>
0

> <ATSDRLST>
0

> <BISPHENOLS>
0

> <OEHHA>
0

> <CERAPP>
0

> <FUNNAMES>
0

> <KWRSJERPS>
0

> <EPACONS>
0

> <IRIS>
0

> <EPAHFR>
0

> <EUCOSMETICS>
0

> <FRENCHLIST>
0

> <HEROMAP>
0

> <ITNANTIBIOTIC>
0

> <KEMIMARKET>
0

> <MASSBANKREF>
0

> <MASSBANKEUSP>
0

> <NEMILIST>
0

> <NATADB>
0

> <NIOSHIDLH>
0

> <NIOSHICSC>
0

> <NIOSHNPG>
0

> <NIOSHSKIN>
0

> <NORMANCT15>
0

> <SFISHFLUORO>
0

> <NORMANPRI>
0

> <NORMANEWS>
0

> <PFASTRIER>
0

> <SWISSPHARMA>
0

> <PPRTVWEB>
0

> <STOCKHOLM>
0

> <STOFFIDENT>
0

> <SCDM>
0

> <EAWAGSURF>
0

> <SWISSPEST>
0

> <TOX21SL>
0

> <TOXCAST>
0

> <TOXCAST_E1K>
0

> <TOXCAST_PH1V2>
0

> <TOXCAST_PH2>
0

> <TOXCAST_PH3>
0

> <TOXCAST_PHASEI>
0

> <TOXCAST_PHASEII>
0

> <TOXCAST_PHASEIII>
0

> <TRIRELEASE>
0

> <TSCASURF>
0

> <UJIBADE>
0

> <ATHENSSUS>
0

> <UATHTARGETS>
0

$$$$

  Mrv1533009301517252D          

  0  0  0     0  0            999 V3000
M  V30 BEGIN CTAB
M  V30 COUNTS 12 13 0 0 0
M  V30 BEGIN ATOM
M  V30 1 C 2.3066 -6.6665 0 0
M  V30 2 C 3.0799 -5.3332 0 0
M  V30 3 N 2.3066 -3.9999 0 0
M  V30 4 C 0.7667 -3.9999 0 0
M  V30 5 C 0 -5.3332 0 0
M  V30 6 N 0.7667 -6.6665 0 0
M  V30 7 C 3.0799 -2.6665 0 0
M  V30 8 C 4.6199 -2.6665 0 0
M  V30 9 C 5.3866 -1.3333 0 0
M  V30 10 C 4.6199 0 0 0
M  V30 11 C 3.0799 0 0 0
M  V30 12 C 2.3066 -1.3333 0 0
M  V30 END ATOM
M  V30 BEGIN BOND
M  V30 1 1 1 2
M  V30 2 1 1 6
M  V30 3 1 2 3
M  V30 4 1 3 4
M  V30 5 1 3 7
M  V30 6 1 4 5
M  V30 7 1 5 6
M  V30 8 2 7 8
M  V30 9 1 7 12
M  V30 10 1 8 9
M  V30 11 2 9 10
M  V30 12 1 10 11
M  V30 13 2 11 12
M  V30 END BOND
M  V30 END CTAB
M  END

> <INPUT>
C10H14N2

> <FOUND_BY>
MS Ready Formula

> <DTXCID_INDIVIDUAL_COMPONENT>
DTXCID9031644

> <FORMULA_INDIVIDUAL_COMPONENT>
C10H14N2

> <SMILES_INDIVIDUAL_COMPONENT>
C1CN(CCN1)C1=CC=CC=C1

> <MAPPED_DTXSID>
DTXSID40293015

> <PREFERRED_NAME_DTXSID>
undecanoic acid- 1-phenylpiperazine(1:1)

> <CASRN_DTXSID>
23174-84-7

> <FORMULA_MAPPED_DTXSID>
C21H36N2O2

> <SMILES_MAPPED_DTXSID>
C1CN(CCN1)C1=CC=CC=C1.CCCCCCCCCCC(O)=O

> <MS_READY_SMILES>
CCCCCCCCCCC(O)=O,C1CN(CCN1)C1=CC=CC=C1

> <INCHI_STRING_DTXCID>
InChI=1S/C10H14N2/c1-2-4-10(5-3-1)12-8-6-11-7-9-12/h1-5,11H,6-9H2

> <INCHIKEY_DTXCID>
YZTJYBJCZXZGCT-UHFFFAOYSA-N

> <MONOISOTOPIC_MASS_DTXCID>
162.115698459

> <EXPOCAST_MEDIAN_EXPOSURE_PREDICTION_MG/KG-BW/DAY>
-

> <EXPOCAST>
0

> <NHANES>
0

> <DATA_SOURCES>
2

> <TOXVAL_DATA>
0

> <TOXCAST_PERCENT_ACTIVE>
-

> <TOXCAST_NUMBER_OF_ASSAYS/TOTAL>
-

> <NUMBER_OF_PUBMED_ARTICLES>
-

> <PUBCHEM_DATA_SOURCES>
11

> <CPDAT_COUNT>
-

> <ATMOSPHERIC_HYDROXYLATION_RATE_(AOH)_CM3/MOLECULE*SEC_OPERA_PRED>
-

> <BIOCONCENTRATION_FACTOR_OPERA_PRED>
-

> <BIODEGRADATION_HALF_LIFE_DAYS_DAYS_OPERA_PRED>
-

> <BOILING_POINT_DEGC_OPERA_PRED>
-

> <HENRYS_LAW_ATM-M3/MOLE_OPERA_PRED>
-

> <OPERA_KM_DAYS_OPERA_PRED>
-

> <OCTANOL_AIR_PARTITION_COEFF_LOGKOA_OPERA_PRED>
-

> <SOIL_ADSORPTION_COEFFICIENT_KOC_L/KG_OPERA_PRED>
-

> <OCTANOL_WATER_PARTITION_LOGP_OPERA_PRED>
-

> <MELTING_POINT_DEGC_OPERA_PRED>
-

> <VAPOR_PRESSURE_MMHG_OPERA_PRED>
-

> <WATER_SOLUBILITY_MOL/L_OPERA_PRED>
-

> <TEST_BCF_TEST_PRED>
-

> <BOILING_POINT_DEGC_TEST_PRED>
-

> <DENSITY_G/CM^3_TEST_PRED>
-

> <FLASH_POINT_DEGC_TEST_PRED>
-

> <MELTING_POINT_DEGC_TEST_PRED>
-

> <SURFACE_TENSION_DYN/CM_TEST_PRED>
-

> <THERMAL_CONDUCTIVITY_MW/(M*K)_TEST_PRED>
-

> <VISCOSITY_CP_CP_TEST_PRED>
-

> <VAPOR_PRESSURE_MMHG_TEST_PRED>
-

> <WATER_SOLUBILITY_MOL/L_TEST_PRED>
-

> <AEGLVALUES>
0

> <ALGALTOX>
0

> <ARCHEMICALS>
0

> <ATSDRLST>
0

> <BISPHENOLS>
0

> <OEHHA>
0

> <CERAPP>
0

> <FUNNAMES>
0

> <KWRSJERPS>
0

> <EPACONS>
0

> <IRIS>
0

> <EPAHFR>
0

> <EUCOSMETICS>
0

> <FRENCHLIST>
0

> <HEROMAP>
0

> <ITNANTIBIOTIC>
0

> <KEMIMARKET>
0

> <MASSBANKREF>
0

> <MASSBANKEUSP>
0

> <NEMILIST>
0

> <NATADB>
0

> <NIOSHIDLH>
0

> <NIOSHICSC>
0

> <NIOSHNPG>
0

> <NIOSHSKIN>
0

> <NORMANCT15>
0

> <SFISHFLUORO>
0

> <NORMANPRI>
0

> <NORMANEWS>
0

> <PFASTRIER>
0

> <SWISSPHARMA>
0

> <PPRTVWEB>
0

> <STOCKHOLM>
0

> <STOFFIDENT>
0

> <SCDM>
0

> <EAWAGSURF>
0

> <SWISSPEST>
0

> <TOX21SL>
0

> <TOXCAST>
0

> <TOXCAST_E1K>
0

> <TOXCAST_PH1V2>
0

> <TOXCAST_PH2>
0

> <TOXCAST_PH3>
0

> <TOXCAST_PHASEI>
0

> <TOXCAST_PHASEII>
0

> <TOXCAST_PHASEIII>
0

> <TRIRELEASE>
0

> <TSCASURF>
0

> <UJIBADE>
0

> <ATHENSSUS>
0

> <UATHTARGETS>
0

$$$$

  Mrv1533009301517252D          

  0  0  0     0  0            999 V3000
M  V30 BEGIN CTAB
M  V30 COUNTS 12 13 0 0 0
M  V30 BEGIN ATOM
M  V30 1 C 2.3066 -6.6665 0 0
M  V30 2 C 3.0799 -5.3332 0 0
M  V30 3 N 2.3066 -3.9999 0 0
M  V30 4 C 0.7667 -3.9999 0 0
M  V30 5 C 0 -5.3332 0 0
M  V30 6 N 0.7667 -6.6665 0 0
M  V30 7 C 3.0799 -2.6665 0 0
M  V30 8 C 4.6199 -2.6665 0 0
M  V30 9 C 5.3866 -1.3333 0 0
M  V30 10 C 4.6199 0 0 0
M  V30 11 C 3.0799 0 0 0
M  V30 12 C 2.3066 -1.3333 0 0
M  V30 END ATOM
M  V30 BEGIN BOND
M  V30 1 1 1 2
M  V30 2 1 1 6
M  V30 3 1 2 3
M  V30 4 1 3 4
M  V30 5 1 3 7
M  V30 6 1 4 5
M  V30 7 1 5 6
M  V30 8 2 7 8
M  V30 9 1 7 12
M  V30 10 1 8 9
M  V30 11 2 9 10
M  V30 12 1 10 11
M  V30 13 2 11 12
M  V30 END BOND
M  V30 END CTAB
M  END

> <INPUT>
C10H14N2

> <FOUND_BY>
MS Ready Formula

> <DTXCID_INDIVIDUAL_COMPONENT>
DTXCID9031644

> <FORMULA_INDIVIDUAL_COMPONENT>
C10H14N2

> <SMILES_INDIVIDUAL_COMPONENT>
C1CN(CCN1)C1=CC=CC=C1

> <MAPPED_DTXSID>
DTXSID50293046

> <PREFERRED_NAME_DTXSID>
2,4,6-trinitrophenol- 1-phenylpiperazine(1:1)

> <CASRN_DTXSID>
28004-83-3

> <FORMULA_MAPPED_DTXSID>
C16H17N5O7

> <SMILES_MAPPED_DTXSID>
C1CN(CCN1)C1=CC=CC=C1.OC1=C(C=C(C=C1[N+]([O-])=O)[N+]([O-])=O)[N+]([O-])=O

> <MS_READY_SMILES>
OC1=C(C=C(C=C1[N+]([O-])=O)[N+]([O-])=O)[N+]([O-])=O,C1CN(CCN1)C1=CC=CC=C1

> <INCHI_STRING_DTXCID>
InChI=1S/C10H14N2/c1-2-4-10(5-3-1)12-8-6-11-7-9-12/h1-5,11H,6-9H2

> <INCHIKEY_DTXCID>
YZTJYBJCZXZGCT-UHFFFAOYSA-N

> <MONOISOTOPIC_MASS_DTXCID>
162.115698459

> <EXPOCAST_MEDIAN_EXPOSURE_PREDICTION_MG/KG-BW/DAY>
-

> <EXPOCAST>
0

> <NHANES>
0

> <DATA_SOURCES>
2

> <TOXVAL_DATA>
0

> <TOXCAST_PERCENT_ACTIVE>
-

> <TOXCAST_NUMBER_OF_ASSAYS/TOTAL>
-

> <NUMBER_OF_PUBMED_ARTICLES>
-

> <PUBCHEM_DATA_SOURCES>
12

> <CPDAT_COUNT>
-

> <ATMOSPHERIC_HYDROXYLATION_RATE_(AOH)_CM3/MOLECULE*SEC_OPERA_PRED>
-

> <BIOCONCENTRATION_FACTOR_OPERA_PRED>
-

> <BIODEGRADATION_HALF_LIFE_DAYS_DAYS_OPERA_PRED>
-

> <BOILING_POINT_DEGC_OPERA_PRED>
-

> <HENRYS_LAW_ATM-M3/MOLE_OPERA_PRED>
-

> <OPERA_KM_DAYS_OPERA_PRED>
-

> <OCTANOL_AIR_PARTITION_COEFF_LOGKOA_OPERA_PRED>
-

> <SOIL_ADSORPTION_COEFFICIENT_KOC_L/KG_OPERA_PRED>
-

> <OCTANOL_WATER_PARTITION_LOGP_OPERA_PRED>
-

> <MELTING_POINT_DEGC_OPERA_PRED>
-

> <VAPOR_PRESSURE_MMHG_OPERA_PRED>
-

> <WATER_SOLUBILITY_MOL/L_OPERA_PRED>
-

> <TEST_BCF_TEST_PRED>
-

> <BOILING_POINT_DEGC_TEST_PRED>
-

> <DENSITY_G/CM^3_TEST_PRED>
-

> <FLASH_POINT_DEGC_TEST_PRED>
-

> <MELTING_POINT_DEGC_TEST_PRED>
-

> <SURFACE_TENSION_DYN/CM_TEST_PRED>
-

> <THERMAL_CONDUCTIVITY_MW/(M*K)_TEST_PRED>
-

> <VISCOSITY_CP_CP_TEST_PRED>
-

> <VAPOR_PRESSURE_MMHG_TEST_PRED>
-

> <WATER_SOLUBILITY_MOL/L_TEST_PRED>
-

> <AEGLVALUES>
0

> <ALGALTOX>
0

> <ARCHEMICALS>
0

> <ATSDRLST>
0

> <BISPHENOLS>
0

> <OEHHA>
0

> <CERAPP>
0

> <FUNNAMES>
0

> <KWRSJERPS>
0

> <EPACONS>
0

> <IRIS>
0

> <EPAHFR>
0

> <EUCOSMETICS>
0

> <FRENCHLIST>
0

> <HEROMAP>
0

> <ITNANTIBIOTIC>
0

> <KEMIMARKET>
0

> <MASSBANKREF>
0

> <MASSBANKEUSP>
0

> <NEMILIST>
0

> <NATADB>
0

> <NIOSHIDLH>
0

> <NIOSHICSC>
0

> <NIOSHNPG>
0

> <NIOSHSKIN>
0

> <NORMANCT15>
0

> <SFISHFLUORO>
0

> <NORMANPRI>
0

> <NORMANEWS>
0

> <PFASTRIER>
0

> <SWISSPHARMA>
0

> <PPRTVWEB>
0

> <STOCKHOLM>
0

> <STOFFIDENT>
0

> <SCDM>
0

> <EAWAGSURF>
0

> <SWISSPEST>
0

> <TOX21SL>
0

> <TOXCAST>
0

> <TOXCAST_E1K>
0

> <TOXCAST_PH1V2>
0

> <TOXCAST_PH2>
0

> <TOXCAST_PH3>
0

> <TOXCAST_PHASEI>
0

> <TOXCAST_PHASEII>
0

> <TOXCAST_PHASEIII>
0

> <TRIRELEASE>
0

> <TSCASURF>
0

> <UJIBADE>
0

> <ATHENSSUS>
0

> <UATHTARGETS>
0

$$$$

  Mrv1533009301517252D          

  0  0  0     0  0            999 V3000
M  V30 BEGIN CTAB
M  V30 COUNTS 12 13 0 0 0
M  V30 BEGIN ATOM
M  V30 1 C 2.3066 -6.6665 0 0
M  V30 2 C 3.0799 -5.3332 0 0
M  V30 3 N 2.3066 -3.9999 0 0
M  V30 4 C 0.7667 -3.9999 0 0
M  V30 5 C 0 -5.3332 0 0
M  V30 6 N 0.7667 -6.6665 0 0
M  V30 7 C 3.0799 -2.6665 0 0
M  V30 8 C 4.6199 -2.6665 0 0
M  V30 9 C 5.3866 -1.3333 0 0
M  V30 10 C 4.6199 0 0 0
M  V30 11 C 3.0799 0 0 0
M  V30 12 C 2.3066 -1.3333 0 0
M  V30 END ATOM
M  V30 BEGIN BOND
M  V30 1 1 1 2
M  V30 2 1 1 6
M  V30 3 1 2 3
M  V30 4 1 3 4
M  V30 5 1 3 7
M  V30 6 1 4 5
M  V30 7 1 5 6
M  V30 8 2 7 8
M  V30 9 1 7 12
M  V30 10 1 8 9
M  V30 11 2 9 10
M  V30 12 1 10 11
M  V30 13 2 11 12
M  V30 END BOND
M  V30 END CTAB
M  END

> <INPUT>
C10H14N2

> <FOUND_BY>
MS Ready Formula

> <DTXCID_INDIVIDUAL_COMPONENT>
DTXCID9031644

> <FORMULA_INDIVIDUAL_COMPONENT>
C10H14N2

> <SMILES_INDIVIDUAL_COMPONENT>
C1CN(CCN1)C1=CC=CC=C1

> <MAPPED_DTXSID>
DTXSID40293631

> <PREFERRED_NAME_DTXSID>
Pentafluoropropanoic acid--1-phenylpiperazine (1/1)

> <CASRN_DTXSID>
893-87-8

> <FORMULA_MAPPED_DTXSID>
C13H15F5N2O2

> <SMILES_MAPPED_DTXSID>
OC(=O)C(F)(F)C(F)(F)F.C1CN(CCN1)C1=CC=CC=C1

> <MS_READY_SMILES>
C1CN(CCN1)C1=CC=CC=C1,OC(=O)C(F)(F)C(F)(F)F

> <INCHI_STRING_DTXCID>
InChI=1S/C10H14N2/c1-2-4-10(5-3-1)12-8-6-11-7-9-12/h1-5,11H,6-9H2

> <INCHIKEY_DTXCID>
YZTJYBJCZXZGCT-UHFFFAOYSA-N

> <MONOISOTOPIC_MASS_DTXCID>
162.115698459

> <EXPOCAST_MEDIAN_EXPOSURE_PREDICTION_MG/KG-BW/DAY>
-

> <EXPOCAST>
0

> <NHANES>
0

> <DATA_SOURCES>
2

> <TOXVAL_DATA>
0

> <TOXCAST_PERCENT_ACTIVE>
-

> <TOXCAST_NUMBER_OF_ASSAYS/TOTAL>
-

> <NUMBER_OF_PUBMED_ARTICLES>
-

> <PUBCHEM_DATA_SOURCES>
9

> <CPDAT_COUNT>
-

> <ATMOSPHERIC_HYDROXYLATION_RATE_(AOH)_CM3/MOLECULE*SEC_OPERA_PRED>
-

> <BIOCONCENTRATION_FACTOR_OPERA_PRED>
-

> <BIODEGRADATION_HALF_LIFE_DAYS_DAYS_OPERA_PRED>
-

> <BOILING_POINT_DEGC_OPERA_PRED>
-

> <HENRYS_LAW_ATM-M3/MOLE_OPERA_PRED>
-

> <OPERA_KM_DAYS_OPERA_PRED>
-

> <OCTANOL_AIR_PARTITION_COEFF_LOGKOA_OPERA_PRED>
-

> <SOIL_ADSORPTION_COEFFICIENT_KOC_L/KG_OPERA_PRED>
-

> <OCTANOL_WATER_PARTITION_LOGP_OPERA_PRED>
-

> <MELTING_POINT_DEGC_OPERA_PRED>
-

> <VAPOR_PRESSURE_MMHG_OPERA_PRED>
-

> <WATER_SOLUBILITY_MOL/L_OPERA_PRED>
-

> <TEST_BCF_TEST_PRED>
-

> <BOILING_POINT_DEGC_TEST_PRED>
-

> <DENSITY_G/CM^3_TEST_PRED>
-

> <FLASH_POINT_DEGC_TEST_PRED>
-

> <MELTING_POINT_DEGC_TEST_PRED>
-

> <SURFACE_TENSION_DYN/CM_TEST_PRED>
-

> <THERMAL_CONDUCTIVITY_MW/(M*K)_TEST_PRED>
-

> <VISCOSITY_CP_CP_TEST_PRED>
-

> <VAPOR_PRESSURE_MMHG_TEST_PRED>
-

> <WATER_SOLUBILITY_MOL/L_TEST_PRED>
-

> <AEGLVALUES>
0

> <ALGALTOX>
0

> <ARCHEMICALS>
0

> <ATSDRLST>
0

> <BISPHENOLS>
0

> <OEHHA>
0

> <CERAPP>
0

> <FUNNAMES>
0

> <KWRSJERPS>
0

> <EPACONS>
0

> <IRIS>
0

> <EPAHFR>
0

> <EUCOSMETICS>
0

> <FRENCHLIST>
0

> <HEROMAP>
0

> <ITNANTIBIOTIC>
0

> <KEMIMARKET>
0

> <MASSBANKREF>
0

> <MASSBANKEUSP>
0

> <NEMILIST>
0

> <NATADB>
0

> <NIOSHIDLH>
0

> <NIOSHICSC>
0

> <NIOSHNPG>
0

> <NIOSHSKIN>
0

> <NORMANCT15>
0

> <SFISHFLUORO>
0

> <NORMANPRI>
0

> <NORMANEWS>
0

> <PFASTRIER>
0

> <SWISSPHARMA>
0

> <PPRTVWEB>
0

> <STOCKHOLM>
0

> <STOFFIDENT>
0

> <SCDM>
0

> <EAWAGSURF>
0

> <SWISSPEST>
0

> <TOX21SL>
0

> <TOXCAST>
0

> <TOXCAST_E1K>
0

> <TOXCAST_PH1V2>
0

> <TOXCAST_PH2>
0

> <TOXCAST_PH3>
0

> <TOXCAST_PHASEI>
0

> <TOXCAST_PHASEII>
0

> <TOXCAST_PHASEIII>
0

> <TRIRELEASE>
0

> <TSCASURF>
0

> <UJIBADE>
0

> <ATHENSSUS>
0

> <UATHTARGETS>
0

$$$$

  Mrv1533009301517252D          

  0  0  0     0  0            999 V3000
M  V30 BEGIN CTAB
M  V30 COUNTS 12 13 0 0 0
M  V30 BEGIN ATOM
M  V30 1 C 2.3066 -6.6665 0 0
M  V30 2 C 3.0799 -5.3332 0 0
M  V30 3 N 2.3066 -3.9999 0 0
M  V30 4 C 0.7667 -3.9999 0 0
M  V30 5 C 0 -5.3332 0 0
M  V30 6 N 0.7667 -6.6665 0 0
M  V30 7 C 3.0799 -2.6665 0 0
M  V30 8 C 4.6199 -2.6665 0 0
M  V30 9 C 5.3866 -1.3333 0 0
M  V30 10 C 4.6199 0 0 0
M  V30 11 C 3.0799 0 0 0
M  V30 12 C 2.3066 -1.3333 0 0
M  V30 END ATOM
M  V30 BEGIN BOND
M  V30 1 1 1 2
M  V30 2 1 1 6
M  V30 3 1 2 3
M  V30 4 1 3 4
M  V30 5 1 3 7
M  V30 6 1 4 5
M  V30 7 1 5 6
M  V30 8 2 7 8
M  V30 9 1 7 12
M  V30 10 1 8 9
M  V30 11 2 9 10
M  V30 12 1 10 11
M  V30 13 2 11 12
M  V30 END BOND
M  V30 END CTAB
M  END

> <INPUT>
C10H14N2

> <FOUND_BY>
MS Ready Formula

> <DTXCID_INDIVIDUAL_COMPONENT>
DTXCID9031644

> <FORMULA_INDIVIDUAL_COMPONENT>
C10H14N2

> <SMILES_INDIVIDUAL_COMPONENT>
C1CN(CCN1)C1=CC=CC=C1

> <MAPPED_DTXSID>
DTXSID00293632

> <PREFERRED_NAME_DTXSID>
3,5,6-trichloro-2,2,3,4,4,5,6,6-octafluorohexanoic acid- 1-phenylpiperazine(1:1)

> <CASRN_DTXSID>
1511-42-8

> <FORMULA_MAPPED_DTXSID>
C16H15Cl3F8N2O2

> <SMILES_MAPPED_DTXSID>
C1CN(CCN1)C1=CC=CC=C1.OC(=O)C(F)(F)C(F)(Cl)C(F)(F)C(F)(Cl)C(F)(F)Cl

> <MS_READY_SMILES>
OC(=O)C(F)(F)C(F)(Cl)C(F)(F)C(F)(Cl)C(F)(F)Cl,C1CN(CCN1)C1=CC=CC=C1

> <INCHI_STRING_DTXCID>
InChI=1S/C10H14N2/c1-2-4-10(5-3-1)12-8-6-11-7-9-12/h1-5,11H,6-9H2

> <INCHIKEY_DTXCID>
YZTJYBJCZXZGCT-UHFFFAOYSA-N

> <MONOISOTOPIC_MASS_DTXCID>
162.115698459

> <EXPOCAST_MEDIAN_EXPOSURE_PREDICTION_MG/KG-BW/DAY>
-

> <EXPOCAST>
0

> <NHANES>
0

> <DATA_SOURCES>
2

> <TOXVAL_DATA>
0

> <TOXCAST_PERCENT_ACTIVE>
-

> <TOXCAST_NUMBER_OF_ASSAYS/TOTAL>
-

> <NUMBER_OF_PUBMED_ARTICLES>
-

> <PUBCHEM_DATA_SOURCES>
10

> <CPDAT_COUNT>
-

> <ATMOSPHERIC_HYDROXYLATION_RATE_(AOH)_CM3/MOLECULE*SEC_OPERA_PRED>
-

> <BIOCONCENTRATION_FACTOR_OPERA_PRED>
-

> <BIODEGRADATION_HALF_LIFE_DAYS_DAYS_OPERA_PRED>
-

> <BOILING_POINT_DEGC_OPERA_PRED>
-

> <HENRYS_LAW_ATM-M3/MOLE_OPERA_PRED>
-

> <OPERA_KM_DAYS_OPERA_PRED>
-

> <OCTANOL_AIR_PARTITION_COEFF_LOGKOA_OPERA_PRED>
-

> <SOIL_ADSORPTION_COEFFICIENT_KOC_L/KG_OPERA_PRED>
-

> <OCTANOL_WATER_PARTITION_LOGP_OPERA_PRED>
-

> <MELTING_POINT_DEGC_OPERA_PRED>
-

> <VAPOR_PRESSURE_MMHG_OPERA_PRED>
-

> <WATER_SOLUBILITY_MOL/L_OPERA_PRED>
-

> <TEST_BCF_TEST_PRED>
-

> <BOILING_POINT_DEGC_TEST_PRED>
-

> <DENSITY_G/CM^3_TEST_PRED>
-

> <FLASH_POINT_DEGC_TEST_PRED>
-

> <MELTING_POINT_DEGC_TEST_PRED>
-

> <SURFACE_TENSION_DYN/CM_TEST_PRED>
-

> <THERMAL_CONDUCTIVITY_MW/(M*K)_TEST_PRED>
-

> <VISCOSITY_CP_CP_TEST_PRED>
-

> <VAPOR_PRESSURE_MMHG_TEST_PRED>
-

> <WATER_SOLUBILITY_MOL/L_TEST_PRED>
-

> <AEGLVALUES>
0

> <ALGALTOX>
0

> <ARCHEMICALS>
0

> <ATSDRLST>
0

> <BISPHENOLS>
0

> <OEHHA>
0

> <CERAPP>
0

> <FUNNAMES>
0

> <KWRSJERPS>
0

> <EPACONS>
0

> <IRIS>
0

> <EPAHFR>
0

> <EUCOSMETICS>
0

> <FRENCHLIST>
0

> <HEROMAP>
0

> <ITNANTIBIOTIC>
0

> <KEMIMARKET>
0

> <MASSBANKREF>
0

> <MASSBANKEUSP>
0

> <NEMILIST>
0

> <NATADB>
0

> <NIOSHIDLH>
0

> <NIOSHICSC>
0

> <NIOSHNPG>
0

> <NIOSHSKIN>
0

> <NORMANCT15>
0

> <SFISHFLUORO>
0

> <NORMANPRI>
0

> <NORMANEWS>
0

> <PFASTRIER>
0

> <SWISSPHARMA>
0

> <PPRTVWEB>
0

> <STOCKHOLM>
0

> <STOFFIDENT>
0

> <SCDM>
0

> <EAWAGSURF>
0

> <SWISSPEST>
0

> <TOX21SL>
0

> <TOXCAST>
0

> <TOXCAST_E1K>
0

> <TOXCAST_PH1V2>
0

> <TOXCAST_PH2>
0

> <TOXCAST_PH3>
0

> <TOXCAST_PHASEI>
0

> <TOXCAST_PHASEII>
0

> <TOXCAST_PHASEIII>
0

> <TRIRELEASE>
0

> <TSCASURF>
0

> <UJIBADE>
0

> <ATHENSSUS>
0

> <UATHTARGETS>
0

$$$$

  Mrv1533009301517252D          

  0  0  0     0  0            999 V3000
M  V30 BEGIN CTAB
M  V30 COUNTS 12 13 0 0 0
M  V30 BEGIN ATOM
M  V30 1 C 2.3066 -6.6665 0 0
M  V30 2 C 3.0799 -5.3332 0 0
M  V30 3 N 2.3066 -3.9999 0 0
M  V30 4 C 0.7667 -3.9999 0 0
M  V30 5 C 0 -5.3332 0 0
M  V30 6 N 0.7667 -6.6665 0 0
M  V30 7 C 3.0799 -2.6665 0 0
M  V30 8 C 4.6199 -2.6665 0 0
M  V30 9 C 5.3866 -1.3333 0 0
M  V30 10 C 4.6199 0 0 0
M  V30 11 C 3.0799 0 0 0
M  V30 12 C 2.3066 -1.3333 0 0
M  V30 END ATOM
M  V30 BEGIN BOND
M  V30 1 1 1 2
M  V30 2 1 1 6
M  V30 3 1 2 3
M  V30 4 1 3 4
M  V30 5 1 3 7
M  V30 6 1 4 5
M  V30 7 1 5 6
M  V30 8 2 7 8
M  V30 9 1 7 12
M  V30 10 1 8 9
M  V30 11 2 9 10
M  V30 12 1 10 11
M  V30 13 2 11 12
M  V30 END BOND
M  V30 END CTAB
M  END

> <INPUT>
C10H14N2

> <FOUND_BY>
MS Ready Formula

> <DTXCID_INDIVIDUAL_COMPONENT>
DTXCID9031644

> <FORMULA_INDIVIDUAL_COMPONENT>
C10H14N2

> <SMILES_INDIVIDUAL_COMPONENT>
C1CN(CCN1)C1=CC=CC=C1

> <MAPPED_DTXSID>
DTXSID60293633

> <PREFERRED_NAME_DTXSID>
pentadecafluorooctanoic acid- 1-phenylpiperazine(1:1)

> <CASRN_DTXSID>
1514-68-7

> <FORMULA_MAPPED_DTXSID>
C18H15F15N2O2

> <SMILES_MAPPED_DTXSID>
C1CN(CCN1)C1=CC=CC=C1.OC(=O)C(F)(F)C(F)(F)C(F)(F)C(F)(F)C(F)(F)C(F)(F)C(F)(F)F

> <MS_READY_SMILES>
OC(=O)C(F)(F)C(F)(F)C(F)(F)C(F)(F)C(F)(F)C(F)(F)C(F)(F)F,C1CN(CCN1)C1=CC=CC=C1

> <INCHI_STRING_DTXCID>
InChI=1S/C10H14N2/c1-2-4-10(5-3-1)12-8-6-11-7-9-12/h1-5,11H,6-9H2

> <INCHIKEY_DTXCID>
YZTJYBJCZXZGCT-UHFFFAOYSA-N

> <MONOISOTOPIC_MASS_DTXCID>
162.115698459

> <EXPOCAST_MEDIAN_EXPOSURE_PREDICTION_MG/KG-BW/DAY>
-

> <EXPOCAST>
0

> <NHANES>
0

> <DATA_SOURCES>
2

> <TOXVAL_DATA>
0

> <TOXCAST_PERCENT_ACTIVE>
-

> <TOXCAST_NUMBER_OF_ASSAYS/TOTAL>
-

> <NUMBER_OF_PUBMED_ARTICLES>
-

> <PUBCHEM_DATA_SOURCES>
11

> <CPDAT_COUNT>
-

> <ATMOSPHERIC_HYDROXYLATION_RATE_(AOH)_CM3/MOLECULE*SEC_OPERA_PRED>
-

> <BIOCONCENTRATION_FACTOR_OPERA_PRED>
-

> <BIODEGRADATION_HALF_LIFE_DAYS_DAYS_OPERA_PRED>
-

> <BOILING_POINT_DEGC_OPERA_PRED>
-

> <HENRYS_LAW_ATM-M3/MOLE_OPERA_PRED>
-

> <OPERA_KM_DAYS_OPERA_PRED>
-

> <OCTANOL_AIR_PARTITION_COEFF_LOGKOA_OPERA_PRED>
-

> <SOIL_ADSORPTION_COEFFICIENT_KOC_L/KG_OPERA_PRED>
-

> <OCTANOL_WATER_PARTITION_LOGP_OPERA_PRED>
-

> <MELTING_POINT_DEGC_OPERA_PRED>
-

> <VAPOR_PRESSURE_MMHG_OPERA_PRED>
-

> <WATER_SOLUBILITY_MOL/L_OPERA_PRED>
-

> <TEST_BCF_TEST_PRED>
-

> <BOILING_POINT_DEGC_TEST_PRED>
-

> <DENSITY_G/CM^3_TEST_PRED>
-

> <FLASH_POINT_DEGC_TEST_PRED>
-

> <MELTING_POINT_DEGC_TEST_PRED>
-

> <SURFACE_TENSION_DYN/CM_TEST_PRED>
-

> <THERMAL_CONDUCTIVITY_MW/(M*K)_TEST_PRED>
-

> <VISCOSITY_CP_CP_TEST_PRED>
-

> <VAPOR_PRESSURE_MMHG_TEST_PRED>
-

> <WATER_SOLUBILITY_MOL/L_TEST_PRED>
-

> <AEGLVALUES>
0

> <ALGALTOX>
0

> <ARCHEMICALS>
0

> <ATSDRLST>
0

> <BISPHENOLS>
0

> <OEHHA>
0

> <CERAPP>
0

> <FUNNAMES>
0

> <KWRSJERPS>
0

> <EPACONS>
0

> <IRIS>
0

> <EPAHFR>
0

> <EUCOSMETICS>
0

> <FRENCHLIST>
0

> <HEROMAP>
0

> <ITNANTIBIOTIC>
0

> <KEMIMARKET>
0

> <MASSBANKREF>
0

> <MASSBANKEUSP>
0

> <NEMILIST>
0

> <NATADB>
0

> <NIOSHIDLH>
0

> <NIOSHICSC>
0

> <NIOSHNPG>
0

> <NIOSHSKIN>
0

> <NORMANCT15>
0

> <SFISHFLUORO>
0

> <NORMANPRI>
0

> <NORMANEWS>
0

> <PFASTRIER>
0

> <SWISSPHARMA>
0

> <PPRTVWEB>
0

> <STOCKHOLM>
0

> <STOFFIDENT>
0

> <SCDM>
0

> <EAWAGSURF>
0

> <SWISSPEST>
0

> <TOX21SL>
0

> <TOXCAST>
0

> <TOXCAST_E1K>
0

> <TOXCAST_PH1V2>
0

> <TOXCAST_PH2>
0

> <TOXCAST_PH3>
0

> <TOXCAST_PHASEI>
0

> <TOXCAST_PHASEII>
0

> <TOXCAST_PHASEIII>
0

> <TRIRELEASE>
0

> <TSCASURF>
0

> <UJIBADE>
0

> <ATHENSSUS>
0

> <UATHTARGETS>
0

$$$$

  Mrv1533009301517252D          

  0  0  0     0  0            999 V3000
M  V30 BEGIN CTAB
M  V30 COUNTS 12 13 0 0 0
M  V30 BEGIN ATOM
M  V30 1 C 2.3066 -6.6665 0 0
M  V30 2 C 3.0799 -5.3332 0 0
M  V30 3 N 2.3066 -3.9999 0 0
M  V30 4 C 0.7667 -3.9999 0 0
M  V30 5 C 0 -5.3332 0 0
M  V30 6 N 0.7667 -6.6665 0 0
M  V30 7 C 3.0799 -2.6665 0 0
M  V30 8 C 4.6199 -2.6665 0 0
M  V30 9 C 5.3866 -1.3333 0 0
M  V30 10 C 4.6199 0 0 0
M  V30 11 C 3.0799 0 0 0
M  V30 12 C 2.3066 -1.3333 0 0
M  V30 END ATOM
M  V30 BEGIN BOND
M  V30 1 1 1 2
M  V30 2 1 1 6
M  V30 3 1 2 3
M  V30 4 1 3 4
M  V30 5 1 3 7
M  V30 6 1 4 5
M  V30 7 1 5 6
M  V30 8 2 7 8
M  V30 9 1 7 12
M  V30 10 1 8 9
M  V30 11 2 9 10
M  V30 12 1 10 11
M  V30 13 2 11 12
M  V30 END BOND
M  V30 END CTAB
M  END

> <INPUT>
C10H14N2

> <FOUND_BY>
MS Ready Formula

> <DTXCID_INDIVIDUAL_COMPONENT>
DTXCID9031644

> <FORMULA_INDIVIDUAL_COMPONENT>
C10H14N2

> <SMILES_INDIVIDUAL_COMPONENT>
C1CN(CCN1)C1=CC=CC=C1

> <MAPPED_DTXSID>
DTXSID20293634

> <PREFERRED_NAME_DTXSID>
1-phenylpiperazine; 2,2,3,3,4,4,5,5,6,6,6-undecafluorohexanoic acid

> <CASRN_DTXSID>
985-60-4

> <FORMULA_MAPPED_DTXSID>
C16H15F11N2O2

> <SMILES_MAPPED_DTXSID>
C1CN(CCN1)C1=CC=CC=C1.OC(=O)C(F)(F)C(F)(F)C(F)(F)C(F)(F)C(F)(F)F

> <MS_READY_SMILES>
OC(=O)C(F)(F)C(F)(F)C(F)(F)C(F)(F)C(F)(F)F,C1CN(CCN1)C1=CC=CC=C1

> <INCHI_STRING_DTXCID>
InChI=1S/C10H14N2/c1-2-4-10(5-3-1)12-8-6-11-7-9-12/h1-5,11H,6-9H2

> <INCHIKEY_DTXCID>
YZTJYBJCZXZGCT-UHFFFAOYSA-N

> <MONOISOTOPIC_MASS_DTXCID>
162.115698459

> <EXPOCAST_MEDIAN_EXPOSURE_PREDICTION_MG/KG-BW/DAY>
-

> <EXPOCAST>
0

> <NHANES>
0

> <DATA_SOURCES>
2

> <TOXVAL_DATA>
0

> <TOXCAST_PERCENT_ACTIVE>
-

> <TOXCAST_NUMBER_OF_ASSAYS/TOTAL>
-

> <NUMBER_OF_PUBMED_ARTICLES>
-

> <PUBCHEM_DATA_SOURCES>
9

> <CPDAT_COUNT>
-

> <ATMOSPHERIC_HYDROXYLATION_RATE_(AOH)_CM3/MOLECULE*SEC_OPERA_PRED>
-

> <BIOCONCENTRATION_FACTOR_OPERA_PRED>
-

> <BIODEGRADATION_HALF_LIFE_DAYS_DAYS_OPERA_PRED>
-

> <BOILING_POINT_DEGC_OPERA_PRED>
-

> <HENRYS_LAW_ATM-M3/MOLE_OPERA_PRED>
-

> <OPERA_KM_DAYS_OPERA_PRED>
-

> <OCTANOL_AIR_PARTITION_COEFF_LOGKOA_OPERA_PRED>
-

> <SOIL_ADSORPTION_COEFFICIENT_KOC_L/KG_OPERA_PRED>
-

> <OCTANOL_WATER_PARTITION_LOGP_OPERA_PRED>
-

> <MELTING_POINT_DEGC_OPERA_PRED>
-

> <VAPOR_PRESSURE_MMHG_OPERA_PRED>
-

> <WATER_SOLUBILITY_MOL/L_OPERA_PRED>
-

> <TEST_BCF_TEST_PRED>
-

> <BOILING_POINT_DEGC_TEST_PRED>
-

> <DENSITY_G/CM^3_TEST_PRED>
-

> <FLASH_POINT_DEGC_TEST_PRED>
-

> <MELTING_POINT_DEGC_TEST_PRED>
-

> <SURFACE_TENSION_DYN/CM_TEST_PRED>
-

> <THERMAL_CONDUCTIVITY_MW/(M*K)_TEST_PRED>
-

> <VISCOSITY_CP_CP_TEST_PRED>
-

> <VAPOR_PRESSURE_MMHG_TEST_PRED>
-

> <WATER_SOLUBILITY_MOL/L_TEST_PRED>
-

> <AEGLVALUES>
0

> <ALGALTOX>
0

> <ARCHEMICALS>
0

> <ATSDRLST>
0

> <BISPHENOLS>
0

> <OEHHA>
0

> <CERAPP>
0

> <FUNNAMES>
0

> <KWRSJERPS>
0

> <EPACONS>
0

> <IRIS>
0

> <EPAHFR>
0

> <EUCOSMETICS>
0

> <FRENCHLIST>
0

> <HEROMAP>
0

> <ITNANTIBIOTIC>
0

> <KEMIMARKET>
0

> <MASSBANKREF>
0

> <MASSBANKEUSP>
0

> <NEMILIST>
0

> <NATADB>
0

> <NIOSHIDLH>
0

> <NIOSHICSC>
0

> <NIOSHNPG>
0

> <NIOSHSKIN>
0

> <NORMANCT15>
0

> <SFISHFLUORO>
0

> <NORMANPRI>
0

> <NORMANEWS>
0

> <PFASTRIER>
0

> <SWISSPHARMA>
0

> <PPRTVWEB>
0

> <STOCKHOLM>
0

> <STOFFIDENT>
0

> <SCDM>
0

> <EAWAGSURF>
0

> <SWISSPEST>
0

> <TOX21SL>
0

> <TOXCAST>
0

> <TOXCAST_E1K>
0

> <TOXCAST_PH1V2>
0

> <TOXCAST_PH2>
0

> <TOXCAST_PH3>
0

> <TOXCAST_PHASEI>
0

> <TOXCAST_PHASEII>
0

> <TOXCAST_PHASEIII>
0

> <TRIRELEASE>
0

> <TSCASURF>
0

> <UJIBADE>
0

> <ATHENSSUS>
0

> <UATHTARGETS>
0

$$$$

  Mrv1533009301517252D          

  0  0  0     0  0            999 V3000
M  V30 BEGIN CTAB
M  V30 COUNTS 12 13 0 0 0
M  V30 BEGIN ATOM
M  V30 1 C 2.3066 -6.6665 0 0
M  V30 2 C 3.0799 -5.3332 0 0
M  V30 3 N 2.3066 -3.9999 0 0
M  V30 4 C 0.7667 -3.9999 0 0
M  V30 5 C 0 -5.3332 0 0
M  V30 6 N 0.7667 -6.6665 0 0
M  V30 7 C 3.0799 -2.6665 0 0
M  V30 8 C 4.6199 -2.6665 0 0
M  V30 9 C 5.3866 -1.3333 0 0
M  V30 10 C 4.6199 0 0 0
M  V30 11 C 3.0799 0 0 0
M  V30 12 C 2.3066 -1.3333 0 0
M  V30 END ATOM
M  V30 BEGIN BOND
M  V30 1 1 1 2
M  V30 2 1 1 6
M  V30 3 1 2 3
M  V30 4 1 3 4
M  V30 5 1 3 7
M  V30 6 1 4 5
M  V30 7 1 5 6
M  V30 8 2 7 8
M  V30 9 1 7 12
M  V30 10 1 8 9
M  V30 11 2 9 10
M  V30 12 1 10 11
M  V30 13 2 11 12
M  V30 END BOND
M  V30 END CTAB
M  END

> <INPUT>
C10H14N2

> <FOUND_BY>
MS Ready Formula

> <DTXCID_INDIVIDUAL_COMPONENT>
DTXCID9031644

> <FORMULA_INDIVIDUAL_COMPONENT>
C10H14N2

> <SMILES_INDIVIDUAL_COMPONENT>
C1CN(CCN1)C1=CC=CC=C1

> <MAPPED_DTXSID>
DTXSID80293635

> <PREFERRED_NAME_DTXSID>
heptafluorobutanoic acid- 1-phenylpiperazine(1:1)

> <CASRN_DTXSID>
2263-11-8

> <FORMULA_MAPPED_DTXSID>
C14H15F7N2O2

> <SMILES_MAPPED_DTXSID>
C1CN(CCN1)C1=CC=CC=C1.OC(=O)C(F)(F)C(F)(F)C(F)(F)F

> <MS_READY_SMILES>
OC(=O)C(F)(F)C(F)(F)C(F)(F)F,C1CN(CCN1)C1=CC=CC=C1

> <INCHI_STRING_DTXCID>
InChI=1S/C10H14N2/c1-2-4-10(5-3-1)12-8-6-11-7-9-12/h1-5,11H,6-9H2

> <INCHIKEY_DTXCID>
YZTJYBJCZXZGCT-UHFFFAOYSA-N

> <MONOISOTOPIC_MASS_DTXCID>
162.115698459

> <EXPOCAST_MEDIAN_EXPOSURE_PREDICTION_MG/KG-BW/DAY>
-

> <EXPOCAST>
0

> <NHANES>
0

> <DATA_SOURCES>
2

> <TOXVAL_DATA>
0

> <TOXCAST_PERCENT_ACTIVE>
-

> <TOXCAST_NUMBER_OF_ASSAYS/TOTAL>
-

> <NUMBER_OF_PUBMED_ARTICLES>
-

> <PUBCHEM_DATA_SOURCES>
10

> <CPDAT_COUNT>
-

> <ATMOSPHERIC_HYDROXYLATION_RATE_(AOH)_CM3/MOLECULE*SEC_OPERA_PRED>
-

> <BIOCONCENTRATION_FACTOR_OPERA_PRED>
-

> <BIODEGRADATION_HALF_LIFE_DAYS_DAYS_OPERA_PRED>
-

> <BOILING_POINT_DEGC_OPERA_PRED>
-

> <HENRYS_LAW_ATM-M3/MOLE_OPERA_PRED>
-

> <OPERA_KM_DAYS_OPERA_PRED>
-

> <OCTANOL_AIR_PARTITION_COEFF_LOGKOA_OPERA_PRED>
-

> <SOIL_ADSORPTION_COEFFICIENT_KOC_L/KG_OPERA_PRED>
-

> <OCTANOL_WATER_PARTITION_LOGP_OPERA_PRED>
-

> <MELTING_POINT_DEGC_OPERA_PRED>
-

> <VAPOR_PRESSURE_MMHG_OPERA_PRED>
-

> <WATER_SOLUBILITY_MOL/L_OPERA_PRED>
-

> <TEST_BCF_TEST_PRED>
-

> <BOILING_POINT_DEGC_TEST_PRED>
-

> <DENSITY_G/CM^3_TEST_PRED>
-

> <FLASH_POINT_DEGC_TEST_PRED>
-

> <MELTING_POINT_DEGC_TEST_PRED>
-

> <SURFACE_TENSION_DYN/CM_TEST_PRED>
-

> <THERMAL_CONDUCTIVITY_MW/(M*K)_TEST_PRED>
-

> <VISCOSITY_CP_CP_TEST_PRED>
-

> <VAPOR_PRESSURE_MMHG_TEST_PRED>
-

> <WATER_SOLUBILITY_MOL/L_TEST_PRED>
-

> <AEGLVALUES>
0

> <ALGALTOX>
0

> <ARCHEMICALS>
0

> <ATSDRLST>
0

> <BISPHENOLS>
0

> <OEHHA>
0

> <CERAPP>
0

> <FUNNAMES>
0

> <KWRSJERPS>
0

> <EPACONS>
0

> <IRIS>
0

> <EPAHFR>
0

> <EUCOSMETICS>
0

> <FRENCHLIST>
0

> <HEROMAP>
0

> <ITNANTIBIOTIC>
0

> <KEMIMARKET>
0

> <MASSBANKREF>
0

> <MASSBANKEUSP>
0

> <NEMILIST>
0

> <NATADB>
0

> <NIOSHIDLH>
0

> <NIOSHICSC>
0

> <NIOSHNPG>
0

> <NIOSHSKIN>
0

> <NORMANCT15>
0

> <SFISHFLUORO>
0

> <NORMANPRI>
0

> <NORMANEWS>
0

> <PFASTRIER>
0

> <SWISSPHARMA>
0

> <PPRTVWEB>
0

> <STOCKHOLM>
0

> <STOFFIDENT>
0

> <SCDM>
0

> <EAWAGSURF>
0

> <SWISSPEST>
0

> <TOX21SL>
0

> <TOXCAST>
0

> <TOXCAST_E1K>
0

> <TOXCAST_PH1V2>
0

> <TOXCAST_PH2>
0

> <TOXCAST_PH3>
0

> <TOXCAST_PHASEI>
0

> <TOXCAST_PHASEII>
0

> <TOXCAST_PHASEIII>
0

> <TRIRELEASE>
0

> <TSCASURF>
0

> <UJIBADE>
0

> <ATHENSSUS>
0

> <UATHTARGETS>
0

$$$$

  Mrv1533009301517252D          

  0  0  0     0  0            999 V3000
M  V30 BEGIN CTAB
M  V30 COUNTS 12 13 0 0 0
M  V30 BEGIN ATOM
M  V30 1 C 2.3066 -6.6665 0 0
M  V30 2 C 3.0799 -5.3332 0 0
M  V30 3 N 2.3066 -3.9999 0 0
M  V30 4 C 0.7667 -3.9999 0 0
M  V30 5 C 0 -5.3332 0 0
M  V30 6 N 0.7667 -6.6665 0 0
M  V30 7 C 3.0799 -2.6665 0 0
M  V30 8 C 4.6199 -2.6665 0 0
M  V30 9 C 5.3866 -1.3333 0 0
M  V30 10 C 4.6199 0 0 0
M  V30 11 C 3.0799 0 0 0
M  V30 12 C 2.3066 -1.3333 0 0
M  V30 END ATOM
M  V30 BEGIN BOND
M  V30 1 1 1 2
M  V30 2 1 1 6
M  V30 3 1 2 3
M  V30 4 1 3 4
M  V30 5 1 3 7
M  V30 6 1 4 5
M  V30 7 1 5 6
M  V30 8 2 7 8
M  V30 9 1 7 12
M  V30 10 1 8 9
M  V30 11 2 9 10
M  V30 12 1 10 11
M  V30 13 2 11 12
M  V30 END BOND
M  V30 END CTAB
M  END

> <INPUT>
C10H14N2

> <FOUND_BY>
MS Ready Formula

> <DTXCID_INDIVIDUAL_COMPONENT>
DTXCID9031644

> <FORMULA_INDIVIDUAL_COMPONENT>
C10H14N2

> <SMILES_INDIVIDUAL_COMPONENT>
C1CN(CCN1)C1=CC=CC=C1

> <MAPPED_DTXSID>
DTXSID40293636

> <PREFERRED_NAME_DTXSID>
1-phenylpiperazine trifluoroacetate(1:1)

> <CASRN_DTXSID>
1511-32-6

> <FORMULA_MAPPED_DTXSID>
C12H15F3N2O2

> <SMILES_MAPPED_DTXSID>
OC(=O)C(F)(F)F.C1CN(CCN1)C1=CC=CC=C1

> <MS_READY_SMILES>
C1CN(CCN1)C1=CC=CC=C1,OC(=O)C(F)(F)F

> <INCHI_STRING_DTXCID>
InChI=1S/C10H14N2/c1-2-4-10(5-3-1)12-8-6-11-7-9-12/h1-5,11H,6-9H2

> <INCHIKEY_DTXCID>
YZTJYBJCZXZGCT-UHFFFAOYSA-N

> <MONOISOTOPIC_MASS_DTXCID>
162.115698459

> <EXPOCAST_MEDIAN_EXPOSURE_PREDICTION_MG/KG-BW/DAY>
-

> <EXPOCAST>
0

> <NHANES>
0

> <DATA_SOURCES>
2

> <TOXVAL_DATA>
0

> <TOXCAST_PERCENT_ACTIVE>
-

> <TOXCAST_NUMBER_OF_ASSAYS/TOTAL>
-

> <NUMBER_OF_PUBMED_ARTICLES>
-

> <PUBCHEM_DATA_SOURCES>
10

> <CPDAT_COUNT>
-

> <ATMOSPHERIC_HYDROXYLATION_RATE_(AOH)_CM3/MOLECULE*SEC_OPERA_PRED>
1.75521e-11

> <BIOCONCENTRATION_FACTOR_OPERA_PRED>
6.19709

> <BIODEGRADATION_HALF_LIFE_DAYS_DAYS_OPERA_PRED>
12.0774

> <BOILING_POINT_DEGC_OPERA_PRED>
288.087

> <HENRYS_LAW_ATM-M3/MOLE_OPERA_PRED>
2.60688e-07

> <OPERA_KM_DAYS_OPERA_PRED>
0.30067

> <OCTANOL_AIR_PARTITION_COEFF_LOGKOA_OPERA_PRED>
8.55338

> <SOIL_ADSORPTION_COEFFICIENT_KOC_L/KG_OPERA_PRED>
160.634

> <OCTANOL_WATER_PARTITION_LOGP_OPERA_PRED>
1.21176

> <MELTING_POINT_DEGC_OPERA_PRED>
45.8929

> <VAPOR_PRESSURE_MMHG_OPERA_PRED>
0.00666262

> <WATER_SOLUBILITY_MOL/L_OPERA_PRED>
0.145931

> <TEST_BCF_TEST_PRED>
8.24138

> <BOILING_POINT_DEGC_TEST_PRED>
272.941

> <DENSITY_G/CM^3_TEST_PRED>
1.028

> <FLASH_POINT_DEGC_TEST_PRED>
118.779

> <MELTING_POINT_DEGC_TEST_PRED>
57.971

> <SURFACE_TENSION_DYN/CM_TEST_PRED>
37.464

> <THERMAL_CONDUCTIVITY_MW/(M*K)_TEST_PRED>
161.939

> <VISCOSITY_CP_CP_TEST_PRED>
7.16143

> <VAPOR_PRESSURE_MMHG_TEST_PRED>
0.00416869

> <WATER_SOLUBILITY_MOL/L_TEST_PRED>
0.0399025

> <AEGLVALUES>
0

> <ALGALTOX>
0

> <ARCHEMICALS>
0

> <ATSDRLST>
0

> <BISPHENOLS>
0

> <OEHHA>
0

> <CERAPP>
0

> <FUNNAMES>
0

> <KWRSJERPS>
0

> <EPACONS>
0

> <IRIS>
0

> <EPAHFR>
0

> <EUCOSMETICS>
0

> <FRENCHLIST>
0

> <HEROMAP>
0

> <ITNANTIBIOTIC>
0

> <KEMIMARKET>
0

> <MASSBANKREF>
0

> <MASSBANKEUSP>
0

> <NEMILIST>
0

> <NATADB>
0

> <NIOSHIDLH>
0

> <NIOSHICSC>
0

> <NIOSHNPG>
0

> <NIOSHSKIN>
0

> <NORMANCT15>
0

> <SFISHFLUORO>
0

> <NORMANPRI>
0

> <NORMANEWS>
0

> <PFASTRIER>
0

> <SWISSPHARMA>
0

> <PPRTVWEB>
0

> <STOCKHOLM>
0

> <STOFFIDENT>
0

> <SCDM>
0

> <EAWAGSURF>
0

> <SWISSPEST>
0

> <TOX21SL>
0

> <TOXCAST>
0

> <TOXCAST_E1K>
0

> <TOXCAST_PH1V2>
0

> <TOXCAST_PH2>
0

> <TOXCAST_PH3>
0

> <TOXCAST_PHASEI>
0

> <TOXCAST_PHASEII>
0

> <TOXCAST_PHASEIII>
0

> <TRIRELEASE>
0

> <TSCASURF>
0

> <UJIBADE>
0

> <ATHENSSUS>
0

> <UATHTARGETS>
0

$$$$

  Mrv1533009301517252D          

  0  0  0     0  0            999 V3000
M  V30 BEGIN CTAB
M  V30 COUNTS 12 13 0 0 0
M  V30 BEGIN ATOM
M  V30 1 C 2.3066 -6.6665 0 0
M  V30 2 C 3.0799 -5.3332 0 0
M  V30 3 N 2.3066 -3.9999 0 0
M  V30 4 C 0.7667 -3.9999 0 0
M  V30 5 C 0 -5.3332 0 0
M  V30 6 N 0.7667 -6.6665 0 0
M  V30 7 C 3.0799 -2.6665 0 0
M  V30 8 C 4.6199 -2.6665 0 0
M  V30 9 C 5.3866 -1.3333 0 0
M  V30 10 C 4.6199 0 0 0
M  V30 11 C 3.0799 0 0 0
M  V30 12 C 2.3066 -1.3333 0 0
M  V30 END ATOM
M  V30 BEGIN BOND
M  V30 1 1 1 2
M  V30 2 1 1 6
M  V30 3 1 2 3
M  V30 4 1 3 4
M  V30 5 1 3 7
M  V30 6 1 4 5
M  V30 7 1 5 6
M  V30 8 2 7 8
M  V30 9 1 7 12
M  V30 10 1 8 9
M  V30 11 2 9 10
M  V30 12 1 10 11
M  V30 13 2 11 12
M  V30 END BOND
M  V30 END CTAB
M  END

> <INPUT>
C10H14N2

> <FOUND_BY>
MS Ready Formula

> <DTXCID_INDIVIDUAL_COMPONENT>
DTXCID9031644

> <FORMULA_INDIVIDUAL_COMPONENT>
C10H14N2

> <SMILES_INDIVIDUAL_COMPONENT>
C1CN(CCN1)C1=CC=CC=C1

> <MAPPED_DTXSID>
DTXSID30296631

> <PREFERRED_NAME_DTXSID>
hydroxyacetic acid- 1-phenylpiperazine(1:1)

> <CASRN_DTXSID>
23168-20-9

> <FORMULA_MAPPED_DTXSID>
C12H18N2O3

> <SMILES_MAPPED_DTXSID>
OCC(O)=O.C1CN(CCN1)C1=CC=CC=C1

> <MS_READY_SMILES>
C1CN(CCN1)C1=CC=CC=C1,OCC(O)=O

> <INCHI_STRING_DTXCID>
InChI=1S/C10H14N2/c1-2-4-10(5-3-1)12-8-6-11-7-9-12/h1-5,11H,6-9H2

> <INCHIKEY_DTXCID>
YZTJYBJCZXZGCT-UHFFFAOYSA-N

> <MONOISOTOPIC_MASS_DTXCID>
162.115698459

> <EXPOCAST_MEDIAN_EXPOSURE_PREDICTION_MG/KG-BW/DAY>
-

> <EXPOCAST>
0

> <NHANES>
0

> <DATA_SOURCES>
2

> <TOXVAL_DATA>
0

> <TOXCAST_PERCENT_ACTIVE>
-

> <TOXCAST_NUMBER_OF_ASSAYS/TOTAL>
-

> <NUMBER_OF_PUBMED_ARTICLES>
-

> <PUBCHEM_DATA_SOURCES>
11

> <CPDAT_COUNT>
-

> <ATMOSPHERIC_HYDROXYLATION_RATE_(AOH)_CM3/MOLECULE*SEC_OPERA_PRED>
1.75521e-11

> <BIOCONCENTRATION_FACTOR_OPERA_PRED>
6.19709

> <BIODEGRADATION_HALF_LIFE_DAYS_DAYS_OPERA_PRED>
12.0774

> <BOILING_POINT_DEGC_OPERA_PRED>
288.087

> <HENRYS_LAW_ATM-M3/MOLE_OPERA_PRED>
2.60688e-07

> <OPERA_KM_DAYS_OPERA_PRED>
0.30067

> <OCTANOL_AIR_PARTITION_COEFF_LOGKOA_OPERA_PRED>
8.55338

> <SOIL_ADSORPTION_COEFFICIENT_KOC_L/KG_OPERA_PRED>
160.634

> <OCTANOL_WATER_PARTITION_LOGP_OPERA_PRED>
1.21176

> <MELTING_POINT_DEGC_OPERA_PRED>
45.9463

> <VAPOR_PRESSURE_MMHG_OPERA_PRED>
0.00666262

> <WATER_SOLUBILITY_MOL/L_OPERA_PRED>
0.145931

> <TEST_BCF_TEST_PRED>
8.24138

> <BOILING_POINT_DEGC_TEST_PRED>
272.941

> <DENSITY_G/CM^3_TEST_PRED>
1.028

> <FLASH_POINT_DEGC_TEST_PRED>
118.779

> <MELTING_POINT_DEGC_TEST_PRED>
57.971

> <SURFACE_TENSION_DYN/CM_TEST_PRED>
37.464

> <THERMAL_CONDUCTIVITY_MW/(M*K)_TEST_PRED>
161.939

> <VISCOSITY_CP_CP_TEST_PRED>
7.16143

> <VAPOR_PRESSURE_MMHG_TEST_PRED>
0.00416869

> <WATER_SOLUBILITY_MOL/L_TEST_PRED>
0.0399025

> <AEGLVALUES>
0

> <ALGALTOX>
0

> <ARCHEMICALS>
0

> <ATSDRLST>
0

> <BISPHENOLS>
0

> <OEHHA>
0

> <CERAPP>
0

> <FUNNAMES>
0

> <KWRSJERPS>
0

> <EPACONS>
0

> <IRIS>
0

> <EPAHFR>
0

> <EUCOSMETICS>
0

> <FRENCHLIST>
0

> <HEROMAP>
0

> <ITNANTIBIOTIC>
0

> <KEMIMARKET>
0

> <MASSBANKREF>
0

> <MASSBANKEUSP>
0

> <NEMILIST>
0

> <NATADB>
0

> <NIOSHIDLH>
0

> <NIOSHICSC>
0

> <NIOSHNPG>
0

> <NIOSHSKIN>
0

> <NORMANCT15>
0

> <SFISHFLUORO>
0

> <NORMANPRI>
0

> <NORMANEWS>
0

> <PFASTRIER>
0

> <SWISSPHARMA>
0

> <PPRTVWEB>
0

> <STOCKHOLM>
0

> <STOFFIDENT>
0

> <SCDM>
0

> <EAWAGSURF>
0

> <SWISSPEST>
0

> <TOX21SL>
0

> <TOXCAST>
0

> <TOXCAST_E1K>
0

> <TOXCAST_PH1V2>
0

> <TOXCAST_PH2>
0

> <TOXCAST_PH3>
0

> <TOXCAST_PHASEI>
0

> <TOXCAST_PHASEII>
0

> <TOXCAST_PHASEIII>
0

> <TRIRELEASE>
0

> <TSCASURF>
0

> <UJIBADE>
0

> <ATHENSSUS>
0

> <UATHTARGETS>
0

$$$$

  Mrv1533009301517252D          

  0  0  0     0  0            999 V3000
M  V30 BEGIN CTAB
M  V30 COUNTS 12 13 0 0 0
M  V30 BEGIN ATOM
M  V30 1 C 2.3066 -6.6665 0 0
M  V30 2 C 3.0799 -5.3332 0 0
M  V30 3 N 2.3066 -3.9999 0 0
M  V30 4 C 0.7667 -3.9999 0 0
M  V30 5 C 0 -5.3332 0 0
M  V30 6 N 0.7667 -6.6665 0 0
M  V30 7 C 3.0799 -2.6665 0 0
M  V30 8 C 4.6199 -2.6665 0 0
M  V30 9 C 5.3866 -1.3333 0 0
M  V30 10 C 4.6199 0 0 0
M  V30 11 C 3.0799 0 0 0
M  V30 12 C 2.3066 -1.3333 0 0
M  V30 END ATOM
M  V30 BEGIN BOND
M  V30 1 1 1 2
M  V30 2 1 1 6
M  V30 3 1 2 3
M  V30 4 1 3 4
M  V30 5 1 3 7
M  V30 6 1 4 5
M  V30 7 1 5 6
M  V30 8 2 7 8
M  V30 9 1 7 12
M  V30 10 1 8 9
M  V30 11 2 9 10
M  V30 12 1 10 11
M  V30 13 2 11 12
M  V30 END BOND
M  V30 END CTAB
M  END

> <INPUT>
C10H14N2

> <FOUND_BY>
MS Ready Formula

> <DTXCID_INDIVIDUAL_COMPONENT>
DTXCID9031644

> <FORMULA_INDIVIDUAL_COMPONENT>
C10H14N2

> <SMILES_INDIVIDUAL_COMPONENT>
C1CN(CCN1)C1=CC=CC=C1

> <MAPPED_DTXSID>
DTXSID90296632

> <PREFERRED_NAME_DTXSID>
4-hydroxybenzoic acid- 1-phenylpiperazine(1:1)

> <CASRN_DTXSID>
23168-25-4

> <FORMULA_MAPPED_DTXSID>
C17H20N2O3

> <SMILES_MAPPED_DTXSID>
OC(=O)C1=CC=C(O)C=C1.C1CN(CCN1)C1=CC=CC=C1

> <MS_READY_SMILES>
C1CN(CCN1)C1=CC=CC=C1,OC(=O)C1=CC=C(O)C=C1

> <INCHI_STRING_DTXCID>
InChI=1S/C10H14N2/c1-2-4-10(5-3-1)12-8-6-11-7-9-12/h1-5,11H,6-9H2

> <INCHIKEY_DTXCID>
YZTJYBJCZXZGCT-UHFFFAOYSA-N

> <MONOISOTOPIC_MASS_DTXCID>
162.115698459

> <EXPOCAST_MEDIAN_EXPOSURE_PREDICTION_MG/KG-BW/DAY>
-

> <EXPOCAST>
0

> <NHANES>
0

> <DATA_SOURCES>
2

> <TOXVAL_DATA>
0

> <TOXCAST_PERCENT_ACTIVE>
-

> <TOXCAST_NUMBER_OF_ASSAYS/TOTAL>
-

> <NUMBER_OF_PUBMED_ARTICLES>
-

> <PUBCHEM_DATA_SOURCES>
12

> <CPDAT_COUNT>
-

> <ATMOSPHERIC_HYDROXYLATION_RATE_(AOH)_CM3/MOLECULE*SEC_OPERA_PRED>
-

> <BIOCONCENTRATION_FACTOR_OPERA_PRED>
-

> <BIODEGRADATION_HALF_LIFE_DAYS_DAYS_OPERA_PRED>
-

> <BOILING_POINT_DEGC_OPERA_PRED>
-

> <HENRYS_LAW_ATM-M3/MOLE_OPERA_PRED>
-

> <OPERA_KM_DAYS_OPERA_PRED>
-

> <OCTANOL_AIR_PARTITION_COEFF_LOGKOA_OPERA_PRED>
-

> <SOIL_ADSORPTION_COEFFICIENT_KOC_L/KG_OPERA_PRED>
-

> <OCTANOL_WATER_PARTITION_LOGP_OPERA_PRED>
-

> <MELTING_POINT_DEGC_OPERA_PRED>
-

> <VAPOR_PRESSURE_MMHG_OPERA_PRED>
-

> <WATER_SOLUBILITY_MOL/L_OPERA_PRED>
-

> <TEST_BCF_TEST_PRED>
-

> <BOILING_POINT_DEGC_TEST_PRED>
-

> <DENSITY_G/CM^3_TEST_PRED>
-

> <FLASH_POINT_DEGC_TEST_PRED>
-

> <MELTING_POINT_DEGC_TEST_PRED>
-

> <SURFACE_TENSION_DYN/CM_TEST_PRED>
-

> <THERMAL_CONDUCTIVITY_MW/(M*K)_TEST_PRED>
-

> <VISCOSITY_CP_CP_TEST_PRED>
-

> <VAPOR_PRESSURE_MMHG_TEST_PRED>
-

> <WATER_SOLUBILITY_MOL/L_TEST_PRED>
-

> <AEGLVALUES>
0

> <ALGALTOX>
0

> <ARCHEMICALS>
0

> <ATSDRLST>
0

> <BISPHENOLS>
0

> <OEHHA>
0

> <CERAPP>
0

> <FUNNAMES>
0

> <KWRSJERPS>
0

> <EPACONS>
0

> <IRIS>
0

> <EPAHFR>
0

> <EUCOSMETICS>
0

> <FRENCHLIST>
0

> <HEROMAP>
0

> <ITNANTIBIOTIC>
0

> <KEMIMARKET>
0

> <MASSBANKREF>
0

> <MASSBANKEUSP>
0

> <NEMILIST>
0

> <NATADB>
0

> <NIOSHIDLH>
0

> <NIOSHICSC>
0

> <NIOSHNPG>
0

> <NIOSHSKIN>
0

> <NORMANCT15>
0

> <SFISHFLUORO>
0

> <NORMANPRI>
0

> <NORMANEWS>
0

> <PFASTRIER>
0

> <SWISSPHARMA>
0

> <PPRTVWEB>
0

> <STOCKHOLM>
0

> <STOFFIDENT>
0

> <SCDM>
0

> <EAWAGSURF>
0

> <SWISSPEST>
0

> <TOX21SL>
0

> <TOXCAST>
0

> <TOXCAST_E1K>
0

> <TOXCAST_PH1V2>
0

> <TOXCAST_PH2>
0

> <TOXCAST_PH3>
0

> <TOXCAST_PHASEI>
0

> <TOXCAST_PHASEII>
0

> <TOXCAST_PHASEIII>
0

> <TRIRELEASE>
0

> <TSCASURF>
0

> <UJIBADE>
0

> <ATHENSSUS>
0

> <UATHTARGETS>
0

$$$$

  Mrv1533009301517252D          

  0  0  0     0  0            999 V3000
M  V30 BEGIN CTAB
M  V30 COUNTS 12 13 0 0 0
M  V30 BEGIN ATOM
M  V30 1 C 2.3066 -6.6665 0 0
M  V30 2 C 3.0799 -5.3332 0 0
M  V30 3 N 2.3066 -3.9999 0 0
M  V30 4 C 0.7667 -3.9999 0 0
M  V30 5 C 0 -5.3332 0 0
M  V30 6 N 0.7667 -6.6665 0 0
M  V30 7 C 3.0799 -2.6665 0 0
M  V30 8 C 4.6199 -2.6665 0 0
M  V30 9 C 5.3866 -1.3333 0 0
M  V30 10 C 4.6199 0 0 0
M  V30 11 C 3.0799 0 0 0
M  V30 12 C 2.3066 -1.3333 0 0
M  V30 END ATOM
M  V30 BEGIN BOND
M  V30 1 1 1 2
M  V30 2 1 1 6
M  V30 3 1 2 3
M  V30 4 1 3 4
M  V30 5 1 3 7
M  V30 6 1 4 5
M  V30 7 1 5 6
M  V30 8 2 7 8
M  V30 9 1 7 12
M  V30 10 1 8 9
M  V30 11 2 9 10
M  V30 12 1 10 11
M  V30 13 2 11 12
M  V30 END BOND
M  V30 END CTAB
M  END

> <INPUT>
C10H14N2

> <FOUND_BY>
MS Ready Formula

> <DTXCID_INDIVIDUAL_COMPONENT>
DTXCID9031644

> <FORMULA_INDIVIDUAL_COMPONENT>
C10H14N2

> <SMILES_INDIVIDUAL_COMPONENT>
C1CN(CCN1)C1=CC=CC=C1

> <MAPPED_DTXSID>
DTXSID50296633

> <PREFERRED_NAME_DTXSID>
phenylacetic acid- 1-phenylpiperazine(1:1)

> <CASRN_DTXSID>
23245-04-7

> <FORMULA_MAPPED_DTXSID>
C18H22N2O2

> <SMILES_MAPPED_DTXSID>
OC(=O)CC1=CC=CC=C1.C1CN(CCN1)C1=CC=CC=C1

> <MS_READY_SMILES>
C1CN(CCN1)C1=CC=CC=C1,OC(=O)CC1=CC=CC=C1

> <INCHI_STRING_DTXCID>
InChI=1S/C10H14N2/c1-2-4-10(5-3-1)12-8-6-11-7-9-12/h1-5,11H,6-9H2

> <INCHIKEY_DTXCID>
YZTJYBJCZXZGCT-UHFFFAOYSA-N

> <MONOISOTOPIC_MASS_DTXCID>
162.115698459

> <EXPOCAST_MEDIAN_EXPOSURE_PREDICTION_MG/KG-BW/DAY>
-

> <EXPOCAST>
0

> <NHANES>
0

> <DATA_SOURCES>
2

> <TOXVAL_DATA>
0

> <TOXCAST_PERCENT_ACTIVE>
-

> <TOXCAST_NUMBER_OF_ASSAYS/TOTAL>
-

> <NUMBER_OF_PUBMED_ARTICLES>
-

> <PUBCHEM_DATA_SOURCES>
11

> <CPDAT_COUNT>
-

> <ATMOSPHERIC_HYDROXYLATION_RATE_(AOH)_CM3/MOLECULE*SEC_OPERA_PRED>
1.75521e-11

> <BIOCONCENTRATION_FACTOR_OPERA_PRED>
6.19709

> <BIODEGRADATION_HALF_LIFE_DAYS_DAYS_OPERA_PRED>
12.0774

> <BOILING_POINT_DEGC_OPERA_PRED>
288.087

> <HENRYS_LAW_ATM-M3/MOLE_OPERA_PRED>
2.60688e-07

> <OPERA_KM_DAYS_OPERA_PRED>
0.30067

> <OCTANOL_AIR_PARTITION_COEFF_LOGKOA_OPERA_PRED>
8.55338

> <SOIL_ADSORPTION_COEFFICIENT_KOC_L/KG_OPERA_PRED>
160.634

> <OCTANOL_WATER_PARTITION_LOGP_OPERA_PRED>
1.21176

> <MELTING_POINT_DEGC_OPERA_PRED>
46.1755

> <VAPOR_PRESSURE_MMHG_OPERA_PRED>
0.00666262

> <WATER_SOLUBILITY_MOL/L_OPERA_PRED>
0.145931

> <TEST_BCF_TEST_PRED>
8.24138

> <BOILING_POINT_DEGC_TEST_PRED>
272.941

> <DENSITY_G/CM^3_TEST_PRED>
1.028

> <FLASH_POINT_DEGC_TEST_PRED>
118.779

> <MELTING_POINT_DEGC_TEST_PRED>
57.971

> <SURFACE_TENSION_DYN/CM_TEST_PRED>
37.464

> <THERMAL_CONDUCTIVITY_MW/(M*K)_TEST_PRED>
161.939

> <VISCOSITY_CP_CP_TEST_PRED>
7.16143

> <VAPOR_PRESSURE_MMHG_TEST_PRED>
0.00416869

> <WATER_SOLUBILITY_MOL/L_TEST_PRED>
0.0399025

> <AEGLVALUES>
0

> <ALGALTOX>
0

> <ARCHEMICALS>
0

> <ATSDRLST>
0

> <BISPHENOLS>
0

> <OEHHA>
0

> <CERAPP>
0

> <FUNNAMES>
0

> <KWRSJERPS>
0

> <EPACONS>
0

> <IRIS>
0

> <EPAHFR>
0

> <EUCOSMETICS>
0

> <FRENCHLIST>
0

> <HEROMAP>
0

> <ITNANTIBIOTIC>
0

> <KEMIMARKET>
0

> <MASSBANKREF>
0

> <MASSBANKEUSP>
0

> <NEMILIST>
0

> <NATADB>
0

> <NIOSHIDLH>
0

> <NIOSHICSC>
0

> <NIOSHNPG>
0

> <NIOSHSKIN>
0

> <NORMANCT15>
0

> <SFISHFLUORO>
0

> <NORMANPRI>
0

> <NORMANEWS>
0

> <PFASTRIER>
0

> <SWISSPHARMA>
0

> <PPRTVWEB>
0

> <STOCKHOLM>
0

> <STOFFIDENT>
0

> <SCDM>
0

> <EAWAGSURF>
0

> <SWISSPEST>
0

> <TOX21SL>
0

> <TOXCAST>
0

> <TOXCAST_E1K>
0

> <TOXCAST_PH1V2>
0

> <TOXCAST_PH2>
0

> <TOXCAST_PH3>
0

> <TOXCAST_PHASEI>
0

> <TOXCAST_PHASEII>
0

> <TOXCAST_PHASEIII>
0

> <TRIRELEASE>
0

> <TSCASURF>
0

> <UJIBADE>
0

> <ATHENSSUS>
0

> <UATHTARGETS>
0

$$$$

  Mrv1533009301517252D          

  0  0  0     0  0            999 V3000
M  V30 BEGIN CTAB
M  V30 COUNTS 12 13 0 0 0
M  V30 BEGIN ATOM
M  V30 1 C 2.3066 -6.6665 0 0
M  V30 2 C 3.0799 -5.3332 0 0
M  V30 3 N 2.3066 -3.9999 0 0
M  V30 4 C 0.7667 -3.9999 0 0
M  V30 5 C 0 -5.3332 0 0
M  V30 6 N 0.7667 -6.6665 0 0
M  V30 7 C 3.0799 -2.6665 0 0
M  V30 8 C 4.6199 -2.6665 0 0
M  V30 9 C 5.3866 -1.3333 0 0
M  V30 10 C 4.6199 0 0 0
M  V30 11 C 3.0799 0 0 0
M  V30 12 C 2.3066 -1.3333 0 0
M  V30 END ATOM
M  V30 BEGIN BOND
M  V30 1 1 1 2
M  V30 2 1 1 6
M  V30 3 1 2 3
M  V30 4 1 3 4
M  V30 5 1 3 7
M  V30 6 1 4 5
M  V30 7 1 5 6
M  V30 8 2 7 8
M  V30 9 1 7 12
M  V30 10 1 8 9
M  V30 11 2 9 10
M  V30 12 1 10 11
M  V30 13 2 11 12
M  V30 END BOND
M  V30 END CTAB
M  END

> <INPUT>
C10H14N2

> <FOUND_BY>
MS Ready Formula

> <DTXCID_INDIVIDUAL_COMPONENT>
DTXCID9031644

> <FORMULA_INDIVIDUAL_COMPONENT>
C10H14N2

> <SMILES_INDIVIDUAL_COMPONENT>
C1CN(CCN1)C1=CC=CC=C1

> <MAPPED_DTXSID>
DTXSID10296634

> <PREFERRED_NAME_DTXSID>
2-benzamidoacetic acid; 1-phenylpiperazine

> <CASRN_DTXSID>
23168-21-0

> <FORMULA_MAPPED_DTXSID>
C19H23N3O3

> <SMILES_MAPPED_DTXSID>
C1CN(CCN1)C1=CC=CC=C1.OC(=O)CNC(=O)C1=CC=CC=C1

> <MS_READY_SMILES>
OC(=O)CNC(=O)C1=CC=CC=C1,C1CN(CCN1)C1=CC=CC=C1

> <INCHI_STRING_DTXCID>
InChI=1S/C10H14N2/c1-2-4-10(5-3-1)12-8-6-11-7-9-12/h1-5,11H,6-9H2

> <INCHIKEY_DTXCID>
YZTJYBJCZXZGCT-UHFFFAOYSA-N

> <MONOISOTOPIC_MASS_DTXCID>
162.115698459

> <EXPOCAST_MEDIAN_EXPOSURE_PREDICTION_MG/KG-BW/DAY>
-

> <EXPOCAST>
0

> <NHANES>
0

> <DATA_SOURCES>
2

> <TOXVAL_DATA>
0

> <TOXCAST_PERCENT_ACTIVE>
-

> <TOXCAST_NUMBER_OF_ASSAYS/TOTAL>
-

> <NUMBER_OF_PUBMED_ARTICLES>
-

> <PUBCHEM_DATA_SOURCES>
10

> <CPDAT_COUNT>
-

> <ATMOSPHERIC_HYDROXYLATION_RATE_(AOH)_CM3/MOLECULE*SEC_OPERA_PRED>
-

> <BIOCONCENTRATION_FACTOR_OPERA_PRED>
-

> <BIODEGRADATION_HALF_LIFE_DAYS_DAYS_OPERA_PRED>
-

> <BOILING_POINT_DEGC_OPERA_PRED>
-

> <HENRYS_LAW_ATM-M3/MOLE_OPERA_PRED>
-

> <OPERA_KM_DAYS_OPERA_PRED>
-

> <OCTANOL_AIR_PARTITION_COEFF_LOGKOA_OPERA_PRED>
-

> <SOIL_ADSORPTION_COEFFICIENT_KOC_L/KG_OPERA_PRED>
-

> <OCTANOL_WATER_PARTITION_LOGP_OPERA_PRED>
-

> <MELTING_POINT_DEGC_OPERA_PRED>
-

> <VAPOR_PRESSURE_MMHG_OPERA_PRED>
-

> <WATER_SOLUBILITY_MOL/L_OPERA_PRED>
-

> <TEST_BCF_TEST_PRED>
-

> <BOILING_POINT_DEGC_TEST_PRED>
-

> <DENSITY_G/CM^3_TEST_PRED>
-

> <FLASH_POINT_DEGC_TEST_PRED>
-

> <MELTING_POINT_DEGC_TEST_PRED>
-

> <SURFACE_TENSION_DYN/CM_TEST_PRED>
-

> <THERMAL_CONDUCTIVITY_MW/(M*K)_TEST_PRED>
-

> <VISCOSITY_CP_CP_TEST_PRED>
-

> <VAPOR_PRESSURE_MMHG_TEST_PRED>
-

> <WATER_SOLUBILITY_MOL/L_TEST_PRED>
-

> <AEGLVALUES>
0

> <ALGALTOX>
0

> <ARCHEMICALS>
0

> <ATSDRLST>
0

> <BISPHENOLS>
0

> <OEHHA>
0

> <CERAPP>
0

> <FUNNAMES>
0

> <KWRSJERPS>
0

> <EPACONS>
0

> <IRIS>
0

> <EPAHFR>
0

> <EUCOSMETICS>
0

> <FRENCHLIST>
0

> <HEROMAP>
0

> <ITNANTIBIOTIC>
0

> <KEMIMARKET>
0

> <MASSBANKREF>
0

> <MASSBANKEUSP>
0

> <NEMILIST>
0

> <NATADB>
0

> <NIOSHIDLH>
0

> <NIOSHICSC>
0

> <NIOSHNPG>
0

> <NIOSHSKIN>
0

> <NORMANCT15>
0

> <SFISHFLUORO>
0

> <NORMANPRI>
0

> <NORMANEWS>
0

> <PFASTRIER>
0

> <SWISSPHARMA>
0

> <PPRTVWEB>
0

> <STOCKHOLM>
0

> <STOFFIDENT>
0

> <SCDM>
0

> <EAWAGSURF>
0

> <SWISSPEST>
0

> <TOX21SL>
0

> <TOXCAST>
0

> <TOXCAST_E1K>
0

> <TOXCAST_PH1V2>
0

> <TOXCAST_PH2>
0

> <TOXCAST_PH3>
0

> <TOXCAST_PHASEI>
0

> <TOXCAST_PHASEII>
0

> <TOXCAST_PHASEIII>
0

> <TRIRELEASE>
0

> <TSCASURF>
0

> <UJIBADE>
0

> <ATHENSSUS>
0

> <UATHTARGETS>
0

$$$$

  Mrv1533009301517252D          

  0  0  0     0  0            999 V3000
M  V30 BEGIN CTAB
M  V30 COUNTS 12 13 0 0 0
M  V30 BEGIN ATOM
M  V30 1 C 2.3066 -6.6665 0 0
M  V30 2 C 3.0799 -5.3332 0 0
M  V30 3 N 2.3066 -3.9999 0 0
M  V30 4 C 0.7667 -3.9999 0 0
M  V30 5 C 0 -5.3332 0 0
M  V30 6 N 0.7667 -6.6665 0 0
M  V30 7 C 3.0799 -2.6665 0 0
M  V30 8 C 4.6199 -2.6665 0 0
M  V30 9 C 5.3866 -1.3333 0 0
M  V30 10 C 4.6199 0 0 0
M  V30 11 C 3.0799 0 0 0
M  V30 12 C 2.3066 -1.3333 0 0
M  V30 END ATOM
M  V30 BEGIN BOND
M  V30 1 1 1 2
M  V30 2 1 1 6
M  V30 3 1 2 3
M  V30 4 1 3 4
M  V30 5 1 3 7
M  V30 6 1 4 5
M  V30 7 1 5 6
M  V30 8 2 7 8
M  V30 9 1 7 12
M  V30 10 1 8 9
M  V30 11 2 9 10
M  V30 12 1 10 11
M  V30 13 2 11 12
M  V30 END BOND
M  V30 END CTAB
M  END

> <INPUT>
C10H14N2

> <FOUND_BY>
MS Ready Formula

> <DTXCID_INDIVIDUAL_COMPONENT>
DTXCID9031644

> <FORMULA_INDIVIDUAL_COMPONENT>
C10H14N2

> <SMILES_INDIVIDUAL_COMPONENT>
C1CN(CCN1)C1=CC=CC=C1

> <MAPPED_DTXSID>
DTXSID70296635

> <PREFERRED_NAME_DTXSID>
tetradecanoic acid- 1-phenylpiperazine(1:1)

> <CASRN_DTXSID>
23246-65-3

> <FORMULA_MAPPED_DTXSID>
C24H42N2O2

> <SMILES_MAPPED_DTXSID>
C1CN(CCN1)C1=CC=CC=C1.CCCCCCCCCCCCCC(O)=O

> <MS_READY_SMILES>
CCCCCCCCCCCCCC(O)=O,C1CN(CCN1)C1=CC=CC=C1

> <INCHI_STRING_DTXCID>
InChI=1S/C10H14N2/c1-2-4-10(5-3-1)12-8-6-11-7-9-12/h1-5,11H,6-9H2

> <INCHIKEY_DTXCID>
YZTJYBJCZXZGCT-UHFFFAOYSA-N

> <MONOISOTOPIC_MASS_DTXCID>
162.115698459

> <EXPOCAST_MEDIAN_EXPOSURE_PREDICTION_MG/KG-BW/DAY>
-

> <EXPOCAST>
0

> <NHANES>
0

> <DATA_SOURCES>
2

> <TOXVAL_DATA>
0

> <TOXCAST_PERCENT_ACTIVE>
-

> <TOXCAST_NUMBER_OF_ASSAYS/TOTAL>
-

> <NUMBER_OF_PUBMED_ARTICLES>
-

> <PUBCHEM_DATA_SOURCES>
10

> <CPDAT_COUNT>
-

> <ATMOSPHERIC_HYDROXYLATION_RATE_(AOH)_CM3/MOLECULE*SEC_OPERA_PRED>
-

> <BIOCONCENTRATION_FACTOR_OPERA_PRED>
-

> <BIODEGRADATION_HALF_LIFE_DAYS_DAYS_OPERA_PRED>
-

> <BOILING_POINT_DEGC_OPERA_PRED>
-

> <HENRYS_LAW_ATM-M3/MOLE_OPERA_PRED>
-

> <OPERA_KM_DAYS_OPERA_PRED>
-

> <OCTANOL_AIR_PARTITION_COEFF_LOGKOA_OPERA_PRED>
-

> <SOIL_ADSORPTION_COEFFICIENT_KOC_L/KG_OPERA_PRED>
-

> <OCTANOL_WATER_PARTITION_LOGP_OPERA_PRED>
-

> <MELTING_POINT_DEGC_OPERA_PRED>
-

> <VAPOR_PRESSURE_MMHG_OPERA_PRED>
-

> <WATER_SOLUBILITY_MOL/L_OPERA_PRED>
-

> <TEST_BCF_TEST_PRED>
-

> <BOILING_POINT_DEGC_TEST_PRED>
-

> <DENSITY_G/CM^3_TEST_PRED>
-

> <FLASH_POINT_DEGC_TEST_PRED>
-

> <MELTING_POINT_DEGC_TEST_PRED>
-

> <SURFACE_TENSION_DYN/CM_TEST_PRED>
-

> <THERMAL_CONDUCTIVITY_MW/(M*K)_TEST_PRED>
-

> <VISCOSITY_CP_CP_TEST_PRED>
-

> <VAPOR_PRESSURE_MMHG_TEST_PRED>
-

> <WATER_SOLUBILITY_MOL/L_TEST_PRED>
-

> <AEGLVALUES>
0

> <ALGALTOX>
0

> <ARCHEMICALS>
0

> <ATSDRLST>
0

> <BISPHENOLS>
0

> <OEHHA>
0

> <CERAPP>
0

> <FUNNAMES>
0

> <KWRSJERPS>
0

> <EPACONS>
0

> <IRIS>
0

> <EPAHFR>
0

> <EUCOSMETICS>
0

> <FRENCHLIST>
0

> <HEROMAP>
0

> <ITNANTIBIOTIC>
0

> <KEMIMARKET>
0

> <MASSBANKREF>
0

> <MASSBANKEUSP>
0

> <NEMILIST>
0

> <NATADB>
0

> <NIOSHIDLH>
0

> <NIOSHICSC>
0

> <NIOSHNPG>
0

> <NIOSHSKIN>
0

> <NORMANCT15>
0

> <SFISHFLUORO>
0

> <NORMANPRI>
0

> <NORMANEWS>
0

> <PFASTRIER>
0

> <SWISSPHARMA>
0

> <PPRTVWEB>
0

> <STOCKHOLM>
0

> <STOFFIDENT>
0

> <SCDM>
0

> <EAWAGSURF>
0

> <SWISSPEST>
0

> <TOX21SL>
0

> <TOXCAST>
0

> <TOXCAST_E1K>
0

> <TOXCAST_PH1V2>
0

> <TOXCAST_PH2>
0

> <TOXCAST_PH3>
0

> <TOXCAST_PHASEI>
0

> <TOXCAST_PHASEII>
0

> <TOXCAST_PHASEIII>
0

> <TRIRELEASE>
0

> <TSCASURF>
0

> <UJIBADE>
0

> <ATHENSSUS>
0

> <UATHTARGETS>
0

$$$$

  Mrv1533009301517252D          

  0  0  0     0  0            999 V3000
M  V30 BEGIN CTAB
M  V30 COUNTS 12 13 0 0 0
M  V30 BEGIN ATOM
M  V30 1 C 2.3066 -6.6665 0 0
M  V30 2 C 3.0799 -5.3332 0 0
M  V30 3 N 2.3066 -3.9999 0 0
M  V30 4 C 0.7667 -3.9999 0 0
M  V30 5 C 0 -5.3332 0 0
M  V30 6 N 0.7667 -6.6665 0 0
M  V30 7 C 3.0799 -2.6665 0 0
M  V30 8 C 4.6199 -2.6665 0 0
M  V30 9 C 5.3866 -1.3333 0 0
M  V30 10 C 4.6199 0 0 0
M  V30 11 C 3.0799 0 0 0
M  V30 12 C 2.3066 -1.3333 0 0
M  V30 END ATOM
M  V30 BEGIN BOND
M  V30 1 1 1 2
M  V30 2 1 1 6
M  V30 3 1 2 3
M  V30 4 1 3 4
M  V30 5 1 3 7
M  V30 6 1 4 5
M  V30 7 1 5 6
M  V30 8 2 7 8
M  V30 9 1 7 12
M  V30 10 1 8 9
M  V30 11 2 9 10
M  V30 12 1 10 11
M  V30 13 2 11 12
M  V30 END BOND
M  V30 END CTAB
M  END

> <INPUT>
C10H14N2

> <FOUND_BY>
MS Ready Formula

> <DTXCID_INDIVIDUAL_COMPONENT>
DTXCID9031644

> <FORMULA_INDIVIDUAL_COMPONENT>
C10H14N2

> <SMILES_INDIVIDUAL_COMPONENT>
C1CN(CCN1)C1=CC=CC=C1

> <MAPPED_DTXSID>
DTXSID20325883

> <PREFERRED_NAME_DTXSID>
2-(2,4-dichlorophenoxy)acetic acid; 1-phenylpiperazine

> <CASRN_DTXSID>
26260-05-9

> <FORMULA_MAPPED_DTXSID>
C18H20Cl2N2O3

> <SMILES_MAPPED_DTXSID>
C1CN(CCN1)C1=CC=CC=C1.OC(=O)COC1=C(Cl)C=C(Cl)C=C1

> <MS_READY_SMILES>
OC(=O)COC1=C(Cl)C=C(Cl)C=C1,C1CN(CCN1)C1=CC=CC=C1

> <INCHI_STRING_DTXCID>
InChI=1S/C10H14N2/c1-2-4-10(5-3-1)12-8-6-11-7-9-12/h1-5,11H,6-9H2

> <INCHIKEY_DTXCID>
YZTJYBJCZXZGCT-UHFFFAOYSA-N

> <MONOISOTOPIC_MASS_DTXCID>
162.115698459

> <EXPOCAST_MEDIAN_EXPOSURE_PREDICTION_MG/KG-BW/DAY>
-

> <EXPOCAST>
0

> <NHANES>
0

> <DATA_SOURCES>
2

> <TOXVAL_DATA>
0

> <TOXCAST_PERCENT_ACTIVE>
-

> <TOXCAST_NUMBER_OF_ASSAYS/TOTAL>
-

> <NUMBER_OF_PUBMED_ARTICLES>
-

> <PUBCHEM_DATA_SOURCES>
7

> <CPDAT_COUNT>
-

> <ATMOSPHERIC_HYDROXYLATION_RATE_(AOH)_CM3/MOLECULE*SEC_OPERA_PRED>
-

> <BIOCONCENTRATION_FACTOR_OPERA_PRED>
-

> <BIODEGRADATION_HALF_LIFE_DAYS_DAYS_OPERA_PRED>
-

> <BOILING_POINT_DEGC_OPERA_PRED>
-

> <HENRYS_LAW_ATM-M3/MOLE_OPERA_PRED>
-

> <OPERA_KM_DAYS_OPERA_PRED>
-

> <OCTANOL_AIR_PARTITION_COEFF_LOGKOA_OPERA_PRED>
-

> <SOIL_ADSORPTION_COEFFICIENT_KOC_L/KG_OPERA_PRED>
-

> <OCTANOL_WATER_PARTITION_LOGP_OPERA_PRED>
-

> <MELTING_POINT_DEGC_OPERA_PRED>
-

> <VAPOR_PRESSURE_MMHG_OPERA_PRED>
-

> <WATER_SOLUBILITY_MOL/L_OPERA_PRED>
-

> <TEST_BCF_TEST_PRED>
-

> <BOILING_POINT_DEGC_TEST_PRED>
-

> <DENSITY_G/CM^3_TEST_PRED>
-

> <FLASH_POINT_DEGC_TEST_PRED>
-

> <MELTING_POINT_DEGC_TEST_PRED>
-

> <SURFACE_TENSION_DYN/CM_TEST_PRED>
-

> <THERMAL_CONDUCTIVITY_MW/(M*K)_TEST_PRED>
-

> <VISCOSITY_CP_CP_TEST_PRED>
-

> <VAPOR_PRESSURE_MMHG_TEST_PRED>
-

> <WATER_SOLUBILITY_MOL/L_TEST_PRED>
-

> <AEGLVALUES>
0

> <ALGALTOX>
0

> <ARCHEMICALS>
0

> <ATSDRLST>
0

> <BISPHENOLS>
0

> <OEHHA>
0

> <CERAPP>
0

> <FUNNAMES>
0

> <KWRSJERPS>
0

> <EPACONS>
0

> <IRIS>
0

> <EPAHFR>
0

> <EUCOSMETICS>
0

> <FRENCHLIST>
0

> <HEROMAP>
0

> <ITNANTIBIOTIC>
0

> <KEMIMARKET>
0

> <MASSBANKREF>
0

> <MASSBANKEUSP>
0

> <NEMILIST>
0

> <NATADB>
0

> <NIOSHIDLH>
0

> <NIOSHICSC>
0

> <NIOSHNPG>
0

> <NIOSHSKIN>
0

> <NORMANCT15>
0

> <SFISHFLUORO>
0

> <NORMANPRI>
0

> <NORMANEWS>
0

> <PFASTRIER>
0

> <SWISSPHARMA>
0

> <PPRTVWEB>
0

> <STOCKHOLM>
0

> <STOFFIDENT>
0

> <SCDM>
0

> <EAWAGSURF>
0

> <SWISSPEST>
0

> <TOX21SL>
0

> <TOXCAST>
0

> <TOXCAST_E1K>
0

> <TOXCAST_PH1V2>
0

> <TOXCAST_PH2>
0

> <TOXCAST_PH3>
0

> <TOXCAST_PHASEI>
0

> <TOXCAST_PHASEII>
0

> <TOXCAST_PHASEIII>
0

> <TRIRELEASE>
0

> <TSCASURF>
0

> <UJIBADE>
0

> <ATHENSSUS>
0

> <UATHTARGETS>
0

$$$$

  Mrv1533009301518252D          

  0  0  0     0  0            999 V3000
M  V30 BEGIN CTAB
M  V30 COUNTS 12 13 0 0 1
M  V30 BEGIN ATOM
M  V30 1 N 5.7473 -0.3192 0 0
M  V30 2 N 4.4135 -1.0892 0 0
M  V30 3 C 5.7473 1.2208 0 0
M  V30 4 C 7.081 1.9908 0 0
M  V30 5 C 7.081 -1.0892 0 0
M  V30 6 C 8.4147 1.2208 0 0
M  V30 7 C 8.4147 -0.3192 0 0
M  V30 8 C 9.7912 2.044 0 0
M  V30 9 C 9.7912 -1.1428 0 0
M  V30 10 C 11.1867 1.2527 0 0
M  V30 11 C 11.1867 -0.3513 0 0
M  V30 12 C 3.08 -0.3192 0 0
M  V30 END ATOM
M  V30 BEGIN BOND
M  V30 1 1 1 2
M  V30 2 1 1 3
M  V30 3 1 1 5
M  V30 4 1 2 12
M  V30 5 1 3 4
M  V30 6 1 4 6
M  V30 7 1 5 7
M  V30 8 1 6 7
M  V30 9 2 6 8
M  V30 10 2 7 9
M  V30 11 1 8 10
M  V30 12 1 9 11
M  V30 13 2 10 11
M  V30 END BOND
M  V30 END CTAB
M  END

> <INPUT>
C10H14N2

> <FOUND_BY>
MS Ready Formula

> <DTXCID_INDIVIDUAL_COMPONENT>
DTXCID90279465

> <FORMULA_INDIVIDUAL_COMPONENT>
C10H14N2

> <SMILES_INDIVIDUAL_COMPONENT>
CNN1CCC2=CC=CC=C2C1

> <MAPPED_DTXSID>
DTXSID60328358

> <PREFERRED_NAME_DTXSID>
N-methyl-3,4-dihydro-1H-isoquinolin-2-amine

> <CASRN_DTXSID>
94314-66-6

> <FORMULA_MAPPED_DTXSID>
C10H14N2

> <SMILES_MAPPED_DTXSID>
CNN1CCC2=CC=CC=C2C1

> <MS_READY_SMILES>
CNN1CCC2=CC=CC=C2C1

> <INCHI_STRING_DTXCID>
InChI=1S/C10H14N2/c1-11-12-7-6-9-4-2-3-5-10(9)8-12/h2-5,11H,6-8H2,1H3

> <INCHIKEY_DTXCID>
FKSNFGGLYGSUSO-UHFFFAOYSA-N

> <MONOISOTOPIC_MASS_DTXCID>
162.115698459

> <EXPOCAST_MEDIAN_EXPOSURE_PREDICTION_MG/KG-BW/DAY>
-

> <EXPOCAST>
0

> <NHANES>
0

> <DATA_SOURCES>
2

> <TOXVAL_DATA>
0

> <TOXCAST_PERCENT_ACTIVE>
-

> <TOXCAST_NUMBER_OF_ASSAYS/TOTAL>
-

> <NUMBER_OF_PUBMED_ARTICLES>
-

> <PUBCHEM_DATA_SOURCES>
15

> <CPDAT_COUNT>
-

> <ATMOSPHERIC_HYDROXYLATION_RATE_(AOH)_CM3/MOLECULE*SEC_OPERA_PRED>
2.44588e-11

> <BIOCONCENTRATION_FACTOR_OPERA_PRED>
6.98802

> <BIODEGRADATION_HALF_LIFE_DAYS_DAYS_OPERA_PRED>
3.33807

> <BOILING_POINT_DEGC_OPERA_PRED>
249.308

> <HENRYS_LAW_ATM-M3/MOLE_OPERA_PRED>
8.75158e-07

> <OPERA_KM_DAYS_OPERA_PRED>
0.503379

> <OCTANOL_AIR_PARTITION_COEFF_LOGKOA_OPERA_PRED>
6.63511

> <SOIL_ADSORPTION_COEFFICIENT_KOC_L/KG_OPERA_PRED>
129.192

> <OCTANOL_WATER_PARTITION_LOGP_OPERA_PRED>
1.65806

> <MELTING_POINT_DEGC_OPERA_PRED>
159.053

> <VAPOR_PRESSURE_MMHG_OPERA_PRED>
0.0189725

> <WATER_SOLUBILITY_MOL/L_OPERA_PRED>
0.084455

> <TEST_BCF_TEST_PRED>
46.4515

> <BOILING_POINT_DEGC_TEST_PRED>
-

> <DENSITY_G/CM^3_TEST_PRED>
1.081

> <FLASH_POINT_DEGC_TEST_PRED>
100.401

> <MELTING_POINT_DEGC_TEST_PRED>
85.873

> <SURFACE_TENSION_DYN/CM_TEST_PRED>
-

> <THERMAL_CONDUCTIVITY_MW/(M*K)_TEST_PRED>
-

> <VISCOSITY_CP_CP_TEST_PRED>
-

> <VAPOR_PRESSURE_MMHG_TEST_PRED>
9.16221e-05

> <WATER_SOLUBILITY_MOL/L_TEST_PRED>
0.0295121

> <AEGLVALUES>
0

> <ALGALTOX>
0

> <ARCHEMICALS>
0

> <ATSDRLST>
0

> <BISPHENOLS>
0

> <OEHHA>
0

> <CERAPP>
0

> <FUNNAMES>
0

> <KWRSJERPS>
0

> <EPACONS>
0

> <IRIS>
0

> <EPAHFR>
0

> <EUCOSMETICS>
0

> <FRENCHLIST>
0

> <HEROMAP>
0

> <ITNANTIBIOTIC>
0

> <KEMIMARKET>
0

> <MASSBANKREF>
0

> <MASSBANKEUSP>
0

> <NEMILIST>
0

> <NATADB>
0

> <NIOSHIDLH>
0

> <NIOSHICSC>
0

> <NIOSHNPG>
0

> <NIOSHSKIN>
0

> <NORMANCT15>
0

> <SFISHFLUORO>
0

> <NORMANPRI>
0

> <NORMANEWS>
0

> <PFASTRIER>
0

> <SWISSPHARMA>
0

> <PPRTVWEB>
0

> <STOCKHOLM>
0

> <STOFFIDENT>
0

> <SCDM>
0

> <EAWAGSURF>
0

> <SWISSPEST>
0

> <TOX21SL>
0

> <TOXCAST>
0

> <TOXCAST_E1K>
0

> <TOXCAST_PH1V2>
0

> <TOXCAST_PH2>
0

> <TOXCAST_PH3>
0

> <TOXCAST_PHASEI>
0

> <TOXCAST_PHASEII>
0

> <TOXCAST_PHASEIII>
0

> <TRIRELEASE>
0

> <TSCASURF>
0

> <UJIBADE>
0

> <ATHENSSUS>
0

> <UATHTARGETS>
0

$$$$
289001
  Mrv1611109301620172D          

  0  0  0     0  0            999 V3000
M  V30 BEGIN CTAB
M  V30 COUNTS 12 13 0 0 0
M  V30 BEGIN ATOM
M  V30 1 N 1.7475 0.715 0 0
M  V30 2 C 1.7475 2.255 0 0
M  V30 3 C 2.9934 -0.1902 0 0
M  V30 4 C 2.5175 -1.6548 0 0
M  V30 5 C 0.9775 -1.6548 0 0
M  V30 6 C 0.0723 -2.9007 0 0
M  V30 7 C 0.6987 -4.3076 0 0
M  V30 8 N -0.2065 -5.5535 0 0
M  V30 9 C -1.7381 -5.3925 0 0
M  V30 10 C -2.3644 -3.9856 0 0
M  V30 11 C -1.4592 -2.7398 0 0
M  V30 12 C 0.5016 -0.1902 0 0
M  V30 END ATOM
M  V30 BEGIN BOND
M  V30 1 1 1 2
M  V30 2 1 1 3
M  V30 3 1 3 4
M  V30 4 1 4 5
M  V30 5 1 5 6
M  V30 6 2 6 7
M  V30 7 1 7 8
M  V30 8 2 8 9
M  V30 9 1 9 10
M  V30 10 2 10 11
M  V30 11 1 11 6
M  V30 12 1 5 12
M  V30 13 1 12 1
M  V30 END BOND
M  V30 END CTAB
M  END

> <INPUT>
C10H14N2

> <FOUND_BY>
MS Ready Formula

> <DTXCID_INDIVIDUAL_COMPONENT>
DTXCID00966314

> <FORMULA_INDIVIDUAL_COMPONENT>
C10H14N2

> <SMILES_INDIVIDUAL_COMPONENT>
CN1CCC(C1)C1=CN=CC=C1

> <MAPPED_DTXSID>
DTXSID50337914

> <PREFERRED_NAME_DTXSID>
3-(1-Methyl-3-pyrrolidinyl)pyridine

> <CASRN_DTXSID>
92118-22-4

> <FORMULA_MAPPED_DTXSID>
C10H14N2

> <SMILES_MAPPED_DTXSID>
CN1CCC(C1)C1=CN=CC=C1

> <MS_READY_SMILES>
CN1CCC(C1)C1=CN=CC=C1

> <INCHI_STRING_DTXCID>
InChI=1S/C10H14N2/c1-12-6-4-10(8-12)9-3-2-5-11-7-9/h2-3,5,7,10H,4,6,8H2,1H3

> <INCHIKEY_DTXCID>
UEIZUEWXLJOVLD-UHFFFAOYSA-N

> <MONOISOTOPIC_MASS_DTXCID>
162.115698459

> <EXPOCAST_MEDIAN_EXPOSURE_PREDICTION_MG/KG-BW/DAY>
-

> <EXPOCAST>
0

> <NHANES>
0

> <DATA_SOURCES>
2

> <TOXVAL_DATA>
0

> <TOXCAST_PERCENT_ACTIVE>
-

> <TOXCAST_NUMBER_OF_ASSAYS/TOTAL>
-

> <NUMBER_OF_PUBMED_ARTICLES>
-

> <PUBCHEM_DATA_SOURCES>
22

> <CPDAT_COUNT>
-

> <ATMOSPHERIC_HYDROXYLATION_RATE_(AOH)_CM3/MOLECULE*SEC_OPERA_PRED>
4.31384e-11

> <BIOCONCENTRATION_FACTOR_OPERA_PRED>
4.66318

> <BIODEGRADATION_HALF_LIFE_DAYS_DAYS_OPERA_PRED>
3.35658

> <BOILING_POINT_DEGC_OPERA_PRED>
254.102

> <HENRYS_LAW_ATM-M3/MOLE_OPERA_PRED>
6.7638e-06

> <OPERA_KM_DAYS_OPERA_PRED>
2.93384

> <OCTANOL_AIR_PARTITION_COEFF_LOGKOA_OPERA_PRED>
5.80576

> <SOIL_ADSORPTION_COEFFICIENT_KOC_L/KG_OPERA_PRED>
159.341

> <OCTANOL_WATER_PARTITION_LOGP_OPERA_PRED>
1.17585

> <MELTING_POINT_DEGC_OPERA_PRED>
-46.8759

> <VAPOR_PRESSURE_MMHG_OPERA_PRED>
0.00977663

> <WATER_SOLUBILITY_MOL/L_OPERA_PRED>
3.73069

> <TEST_BCF_TEST_PRED>
17.2187

> <BOILING_POINT_DEGC_TEST_PRED>
249.918

> <DENSITY_G/CM^3_TEST_PRED>
1.027

> <FLASH_POINT_DEGC_TEST_PRED>
102.753

> <MELTING_POINT_DEGC_TEST_PRED>
29.548

> <SURFACE_TENSION_DYN/CM_TEST_PRED>
36.334

> <THERMAL_CONDUCTIVITY_MW/(M*K)_TEST_PRED>
143.19

> <VISCOSITY_CP_CP_TEST_PRED>
7.2277

> <VAPOR_PRESSURE_MMHG_TEST_PRED>
0.00430527

> <WATER_SOLUBILITY_MOL/L_TEST_PRED>
0.121339

> <AEGLVALUES>
0

> <ALGALTOX>
0

> <ARCHEMICALS>
0

> <ATSDRLST>
0

> <BISPHENOLS>
0

> <OEHHA>
0

> <CERAPP>
0

> <FUNNAMES>
0

> <KWRSJERPS>
0

> <EPACONS>
0

> <IRIS>
0

> <EPAHFR>
0

> <EUCOSMETICS>
0

> <FRENCHLIST>
0

> <HEROMAP>
0

> <ITNANTIBIOTIC>
0

> <KEMIMARKET>
0

> <MASSBANKREF>
0

> <MASSBANKEUSP>
0

> <NEMILIST>
0

> <NATADB>
0

> <NIOSHIDLH>
0

> <NIOSHICSC>
0

> <NIOSHNPG>
0

> <NIOSHSKIN>
0

> <NORMANCT15>
0

> <SFISHFLUORO>
0

> <NORMANPRI>
0

> <NORMANEWS>
0

> <PFASTRIER>
0

> <SWISSPHARMA>
0

> <PPRTVWEB>
0

> <STOCKHOLM>
0

> <STOFFIDENT>
0

> <SCDM>
0

> <EAWAGSURF>
0

> <SWISSPEST>
0

> <TOX21SL>
0

> <TOXCAST>
0

> <TOXCAST_E1K>
0

> <TOXCAST_PH1V2>
0

> <TOXCAST_PH2>
0

> <TOXCAST_PH3>
0

> <TOXCAST_PHASEI>
0

> <TOXCAST_PHASEII>
0

> <TOXCAST_PHASEIII>
0

> <TRIRELEASE>
0

> <TSCASURF>
0

> <UJIBADE>
0

> <ATHENSSUS>
0

> <UATHTARGETS>
0

$$$$

  Mrv1533009301518312D          

  0  0  0     0  0            999 V3000
M  V30 BEGIN CTAB
M  V30 COUNTS 12 13 0 0 1
M  V30 BEGIN ATOM
M  V30 1 N 4.3262 -1.0379 0 0
M  V30 2 N 5.0962 1.3321 0 0
M  V30 3 C 3.0802 -0.1325 0 0
M  V30 4 C 3.556 1.3321 0 0
M  V30 5 C 5.572 -0.1325 0 0
M  V30 6 C 7.0368 -0.6087 0 0
M  V30 7 C 4.3262 -2.5779 0 0
M  V30 8 C 6.0013 2.5779 0 0
M  V30 9 C 7.5128 -2.0733 0 0
M  V30 10 C 8.2828 0.2966 0 0
M  V30 11 C 9.0528 -2.0733 0 0
M  V30 12 C 9.5288 -0.6087 0 0
M  V30 END ATOM
M  V30 BEGIN BOND
M  V30 1 1 1 3
M  V30 2 1 1 5
M  V30 3 1 1 7
M  V30 4 1 2 4
M  V30 5 1 2 5
M  V30 6 1 2 8
M  V30 7 1 3 4
M  V30 8 2 5 6
M  V30 9 1 6 9
M  V30 10 1 6 10
M  V30 11 2 9 11
M  V30 12 2 10 12
M  V30 13 1 11 12
M  V30 END BOND
M  V30 END CTAB
M  END

> <INPUT>
C10H14N2

> <FOUND_BY>
MS Ready Formula

> <DTXCID_INDIVIDUAL_COMPONENT>
DTXCID00299715

> <FORMULA_INDIVIDUAL_COMPONENT>
C10H14N2

> <SMILES_INDIVIDUAL_COMPONENT>
CN1CCN(C)C1=C1C=CC=C1

> <MAPPED_DTXSID>
DTXSID70348643

> <PREFERRED_NAME_DTXSID>
2-cyclopenta-2,4-dien-1-ylidene-1,3-dimethylimidazolidine

> <CASRN_DTXSID>
81541-00-6

> <FORMULA_MAPPED_DTXSID>
C10H14N2

> <SMILES_MAPPED_DTXSID>
CN1CCN(C)C1=C1C=CC=C1

> <MS_READY_SMILES>
CN1CCN(C)C1=C1C=CC=C1

> <INCHI_STRING_DTXCID>
InChI=1S/C10H14N2/c1-11-7-8-12(2)10(11)9-5-3-4-6-9/h3-6H,7-8H2,1-2H3

> <INCHIKEY_DTXCID>
QEECQVPPUAOIGW-UHFFFAOYSA-N

> <MONOISOTOPIC_MASS_DTXCID>
162.115698459

> <EXPOCAST_MEDIAN_EXPOSURE_PREDICTION_MG/KG-BW/DAY>
-

> <EXPOCAST>
0

> <NHANES>
0

> <DATA_SOURCES>
2

> <TOXVAL_DATA>
0

> <TOXCAST_PERCENT_ACTIVE>
-

> <TOXCAST_NUMBER_OF_ASSAYS/TOTAL>
-

> <NUMBER_OF_PUBMED_ARTICLES>
-

> <PUBCHEM_DATA_SOURCES>
8

> <CPDAT_COUNT>
-

> <ATMOSPHERIC_HYDROXYLATION_RATE_(AOH)_CM3/MOLECULE*SEC_OPERA_PRED>
4.2872e-11

> <BIOCONCENTRATION_FACTOR_OPERA_PRED>
6.07997

> <BIODEGRADATION_HALF_LIFE_DAYS_DAYS_OPERA_PRED>
7.70453

> <BOILING_POINT_DEGC_OPERA_PRED>
262.716

> <HENRYS_LAW_ATM-M3/MOLE_OPERA_PRED>
4.84097e-06

> <OPERA_KM_DAYS_OPERA_PRED>
3.61169

> <OCTANOL_AIR_PARTITION_COEFF_LOGKOA_OPERA_PRED>
5.66246

> <SOIL_ADSORPTION_COEFFICIENT_KOC_L/KG_OPERA_PRED>
102.547

> <OCTANOL_WATER_PARTITION_LOGP_OPERA_PRED>
0.899

> <MELTING_POINT_DEGC_OPERA_PRED>
2.46693

> <VAPOR_PRESSURE_MMHG_OPERA_PRED>
0.00647654

> <WATER_SOLUBILITY_MOL/L_OPERA_PRED>
0.0721425

> <TEST_BCF_TEST_PRED>
20.5589

> <BOILING_POINT_DEGC_TEST_PRED>
211.204

> <DENSITY_G/CM^3_TEST_PRED>
0.981

> <FLASH_POINT_DEGC_TEST_PRED>
89.781

> <MELTING_POINT_DEGC_TEST_PRED>
24.844

> <SURFACE_TENSION_DYN/CM_TEST_PRED>
30.909

> <THERMAL_CONDUCTIVITY_MW/(M*K)_TEST_PRED>
-

> <VISCOSITY_CP_CP_TEST_PRED>
-

> <VAPOR_PRESSURE_MMHG_TEST_PRED>
0.0254683

> <WATER_SOLUBILITY_MOL/L_TEST_PRED>
0.0365595

> <AEGLVALUES>
0

> <ALGALTOX>
0

> <ARCHEMICALS>
0

> <ATSDRLST>
0

> <BISPHENOLS>
0

> <OEHHA>
0

> <CERAPP>
0

> <FUNNAMES>
0

> <KWRSJERPS>
0

> <EPACONS>
0

> <IRIS>
0

> <EPAHFR>
0

> <EUCOSMETICS>
0

> <FRENCHLIST>
0

> <HEROMAP>
0

> <ITNANTIBIOTIC>
0

> <KEMIMARKET>
0

> <MASSBANKREF>
0

> <MASSBANKEUSP>
0

> <NEMILIST>
0

> <NATADB>
0

> <NIOSHIDLH>
0

> <NIOSHICSC>
0

> <NIOSHNPG>
0

> <NIOSHSKIN>
0

> <NORMANCT15>
0

> <SFISHFLUORO>
0

> <NORMANPRI>
0

> <NORMANEWS>
0

> <PFASTRIER>
0

> <SWISSPHARMA>
0

> <PPRTVWEB>
0

> <STOCKHOLM>
0

> <STOFFIDENT>
0

> <SCDM>
0

> <EAWAGSURF>
0

> <SWISSPEST>
0

> <TOX21SL>
0

> <TOXCAST>
0

> <TOXCAST_E1K>
0

> <TOXCAST_PH1V2>
0

> <TOXCAST_PH2>
0

> <TOXCAST_PH3>
0

> <TOXCAST_PHASEI>
0

> <TOXCAST_PHASEII>
0

> <TOXCAST_PHASEIII>
0

> <TRIRELEASE>
0

> <TSCASURF>
0

> <UJIBADE>
0

> <ATHENSSUS>
0

> <UATHTARGETS>
0

$$$$

  Mrv1533009301518332D          

  0  0  0     0  0            999 V3000
M  V30 BEGIN CTAB
M  V30 COUNTS 12 13 0 0 0
M  V30 BEGIN ATOM
M  V30 1 N 4.4137 2.1338 0 0
M  V30 2 N 4.4137 -4.0262 0 0
M  V30 3 C 5.1837 4.5037 0 0
M  V30 4 C 3.6437 4.5037 0 0
M  V30 5 C 5.6595 3.0391 0 0
M  V30 6 C 3.1679 3.0391 0 0
M  V30 7 C 4.4137 0.5938 0 0
M  V30 8 C 3.08 -0.1762 0 0
M  V30 9 C 5.7475 -0.1762 0 0
M  V30 10 C 3.08 -1.7162 0 0
M  V30 11 C 5.7475 -1.7162 0 0
M  V30 12 C 4.4137 -2.4862 0 0
M  V30 END ATOM
M  V30 BEGIN BOND
M  V30 1 1 1 5
M  V30 2 1 1 6
M  V30 3 1 1 7
M  V30 4 1 2 12
M  V30 5 1 3 4
M  V30 6 1 3 5
M  V30 7 1 4 6
M  V30 8 2 7 8
M  V30 9 1 7 9
M  V30 10 1 8 10
M  V30 11 2 9 11
M  V30 12 2 10 12
M  V30 13 1 11 12
M  V30 END BOND
M  V30 END CTAB
M  END

> <INPUT>
C10H14N2

> <FOUND_BY>
MS Ready Formula

> <DTXCID_INDIVIDUAL_COMPONENT>
DTXCID40306674

> <FORMULA_INDIVIDUAL_COMPONENT>
C10H14N2

> <SMILES_INDIVIDUAL_COMPONENT>
NC1=CC=C(C=C1)N1CCCC1

> <MAPPED_DTXSID>
DTXSID10355614

> <PREFERRED_NAME_DTXSID>
4-(pyrrolidin-1-yl)aniline

> <CASRN_DTXSID>
2632-65-7

> <FORMULA_MAPPED_DTXSID>
C10H14N2

> <SMILES_MAPPED_DTXSID>
NC1=CC=C(C=C1)N1CCCC1

> <MS_READY_SMILES>
NC1=CC=C(C=C1)N1CCCC1

> <INCHI_STRING_DTXCID>
InChI=1S/C10H14N2/c11-9-3-5-10(6-4-9)12-7-1-2-8-12/h3-6H,1-2,7-8,11H2

> <INCHIKEY_DTXCID>
URAARCWOADCWLA-UHFFFAOYSA-N

> <MONOISOTOPIC_MASS_DTXCID>
162.115698459

> <EXPOCAST_MEDIAN_EXPOSURE_PREDICTION_MG/KG-BW/DAY>
-

> <EXPOCAST>
0

> <NHANES>
0

> <DATA_SOURCES>
2

> <TOXVAL_DATA>
0

> <TOXCAST_PERCENT_ACTIVE>
-

> <TOXCAST_NUMBER_OF_ASSAYS/TOTAL>
-

> <NUMBER_OF_PUBMED_ARTICLES>
-

> <PUBCHEM_DATA_SOURCES>
75

> <CPDAT_COUNT>
-

> <ATMOSPHERIC_HYDROXYLATION_RATE_(AOH)_CM3/MOLECULE*SEC_OPERA_PRED>
1.74149e-11

> <BIOCONCENTRATION_FACTOR_OPERA_PRED>
7.46953

> <BIODEGRADATION_HALF_LIFE_DAYS_DAYS_OPERA_PRED>
3.7529

> <BOILING_POINT_DEGC_OPERA_PRED>
308.592

> <HENRYS_LAW_ATM-M3/MOLE_OPERA_PRED>
1.63344e-07

> <OPERA_KM_DAYS_OPERA_PRED>
0.158686

> <OCTANOL_AIR_PARTITION_COEFF_LOGKOA_OPERA_PRED>
8.77789

> <SOIL_ADSORPTION_COEFFICIENT_KOC_L/KG_OPERA_PRED>
183.739

> <OCTANOL_WATER_PARTITION_LOGP_OPERA_PRED>
1.08695

> <MELTING_POINT_DEGC_OPERA_PRED>
141.124

> <VAPOR_PRESSURE_MMHG_OPERA_PRED>
9.95496e-05

> <WATER_SOLUBILITY_MOL/L_OPERA_PRED>
0.244358

> <TEST_BCF_TEST_PRED>
17.1002

> <BOILING_POINT_DEGC_TEST_PRED>
286.548

> <DENSITY_G/CM^3_TEST_PRED>
1.064

> <FLASH_POINT_DEGC_TEST_PRED>
144.879

> <MELTING_POINT_DEGC_TEST_PRED>
66.394

> <SURFACE_TENSION_DYN/CM_TEST_PRED>
-

> <THERMAL_CONDUCTIVITY_MW/(M*K)_TEST_PRED>
166.204

> <VISCOSITY_CP_CP_TEST_PRED>
6.60693

> <VAPOR_PRESSURE_MMHG_TEST_PRED>
0.000381944

> <WATER_SOLUBILITY_MOL/L_TEST_PRED>
0.0128233

> <AEGLVALUES>
0

> <ALGALTOX>
0

> <ARCHEMICALS>
0

> <ATSDRLST>
0

> <BISPHENOLS>
0

> <OEHHA>
0

> <CERAPP>
0

> <FUNNAMES>
0

> <KWRSJERPS>
0

> <EPACONS>
0

> <IRIS>
0

> <EPAHFR>
0

> <EUCOSMETICS>
0

> <FRENCHLIST>
0

> <HEROMAP>
0

> <ITNANTIBIOTIC>
0

> <KEMIMARKET>
0

> <MASSBANKREF>
0

> <MASSBANKEUSP>
0

> <NEMILIST>
0

> <NATADB>
0

> <NIOSHIDLH>
0

> <NIOSHICSC>
0

> <NIOSHNPG>
0

> <NIOSHSKIN>
0

> <NORMANCT15>
0

> <SFISHFLUORO>
0

> <NORMANPRI>
0

> <NORMANEWS>
0

> <PFASTRIER>
0

> <SWISSPHARMA>
0

> <PPRTVWEB>
0

> <STOCKHOLM>
0

> <STOFFIDENT>
0

> <SCDM>
0

> <EAWAGSURF>
0

> <SWISSPEST>
0

> <TOX21SL>
0

> <TOXCAST>
0

> <TOXCAST_E1K>
0

> <TOXCAST_PH1V2>
0

> <TOXCAST_PH2>
0

> <TOXCAST_PH3>
0

> <TOXCAST_PHASEI>
0

> <TOXCAST_PHASEII>
0

> <TOXCAST_PHASEIII>
0

> <TRIRELEASE>
0

> <TSCASURF>
0

> <UJIBADE>
0

> <ATHENSSUS>
0

> <UATHTARGETS>
0

$$$$

  Mrv1533009301518342D          

  0  0  0     0  0            999 V3000
M  V30 BEGIN CTAB
M  V30 COUNTS 12 13 0 0 0
M  V30 BEGIN ATOM
M  V30 1 N 6.5744 1.1252 0 0
M  V30 2 N 3.9069 -0.415 0 0
M  V30 3 C 7.3444 3.495 0 0
M  V30 4 C 5.8044 3.495 0 0
M  V30 5 C 7.8202 2.0304 0 0
M  V30 6 C 5.3286 2.0304 0 0
M  V30 7 C 6.5744 -0.415 0 0
M  V30 8 C 5.2407 -1.185 0 0
M  V30 9 C 7.9081 -1.185 0 0
M  V30 10 C 5.2407 -2.725 0 0
M  V30 11 C 7.9081 -2.725 0 0
M  V30 12 C 6.5744 -3.495 0 0
M  V30 END ATOM
M  V30 BEGIN BOND
M  V30 1 1 1 5
M  V30 2 1 1 6
M  V30 3 1 1 7
M  V30 4 1 2 8
M  V30 5 1 3 4
M  V30 6 1 3 5
M  V30 7 1 4 6
M  V30 8 1 7 8
M  V30 9 2 7 9
M  V30 10 2 8 10
M  V30 11 1 9 11
M  V30 12 1 10 12
M  V30 13 2 11 12
M  V30 END BOND
M  V30 END CTAB
M  END

> <INPUT>
C10H14N2

> <FOUND_BY>
MS Ready Formula

> <DTXCID_INDIVIDUAL_COMPONENT>
DTXCID50310141

> <FORMULA_INDIVIDUAL_COMPONENT>
C10H14N2

> <SMILES_INDIVIDUAL_COMPONENT>
NC1=CC=CC=C1N1CCCC1

> <MAPPED_DTXSID>
DTXSID60359086

> <PREFERRED_NAME_DTXSID>
2-pyrrolidin-1-ylaniline

> <CASRN_DTXSID>
21627-58-7

> <FORMULA_MAPPED_DTXSID>
C10H14N2

> <SMILES_MAPPED_DTXSID>
NC1=CC=CC=C1N1CCCC1

> <MS_READY_SMILES>
NC1=CC=CC=C1N1CCCC1

> <INCHI_STRING_DTXCID>
InChI=1S/C10H14N2/c11-9-5-1-2-6-10(9)12-7-3-4-8-12/h1-2,5-6H,3-4,7-8,11H2

> <INCHIKEY_DTXCID>
BFPUBGCFJMIZDF-UHFFFAOYSA-N

> <MONOISOTOPIC_MASS_DTXCID>
162.115698459

> <EXPOCAST_MEDIAN_EXPOSURE_PREDICTION_MG/KG-BW/DAY>
-

> <EXPOCAST>
0

> <NHANES>
0

> <DATA_SOURCES>
2

> <TOXVAL_DATA>
0

> <TOXCAST_PERCENT_ACTIVE>
-

> <TOXCAST_NUMBER_OF_ASSAYS/TOTAL>
-

> <NUMBER_OF_PUBMED_ARTICLES>
-

> <PUBCHEM_DATA_SOURCES>
62

> <CPDAT_COUNT>
-

> <ATMOSPHERIC_HYDROXYLATION_RATE_(AOH)_CM3/MOLECULE*SEC_OPERA_PRED>
1.73443e-11

> <BIOCONCENTRATION_FACTOR_OPERA_PRED>
7.45304

> <BIODEGRADATION_HALF_LIFE_DAYS_DAYS_OPERA_PRED>
2.6198

> <BOILING_POINT_DEGC_OPERA_PRED>
307.528

> <HENRYS_LAW_ATM-M3/MOLE_OPERA_PRED>
1.63547e-07

> <OPERA_KM_DAYS_OPERA_PRED>
0.355043

> <OCTANOL_AIR_PARTITION_COEFF_LOGKOA_OPERA_PRED>
8.72672

> <SOIL_ADSORPTION_COEFFICIENT_KOC_L/KG_OPERA_PRED>
176.215

> <OCTANOL_WATER_PARTITION_LOGP_OPERA_PRED>
1.16137

> <MELTING_POINT_DEGC_OPERA_PRED>
141.637

> <VAPOR_PRESSURE_MMHG_OPERA_PRED>
0.000104411

> <WATER_SOLUBILITY_MOL/L_OPERA_PRED>
0.24541

> <TEST_BCF_TEST_PRED>
10.8143

> <BOILING_POINT_DEGC_TEST_PRED>
277.429

> <DENSITY_G/CM^3_TEST_PRED>
1.089

> <FLASH_POINT_DEGC_TEST_PRED>
116.288

> <MELTING_POINT_DEGC_TEST_PRED>
48.186

> <SURFACE_TENSION_DYN/CM_TEST_PRED>
-

> <THERMAL_CONDUCTIVITY_MW/(M*K)_TEST_PRED>
167.652

> <VISCOSITY_CP_CP_TEST_PRED>
5.87489

> <VAPOR_PRESSURE_MMHG_TEST_PRED>
0.000966051

> <WATER_SOLUBILITY_MOL/L_TEST_PRED>
0.0074131

> <AEGLVALUES>
0

> <ALGALTOX>
0

> <ARCHEMICALS>
0

> <ATSDRLST>
0

> <BISPHENOLS>
0

> <OEHHA>
0

> <CERAPP>
0

> <FUNNAMES>
0

> <KWRSJERPS>
0

> <EPACONS>
0

> <IRIS>
0

> <EPAHFR>
0

> <EUCOSMETICS>
0

> <FRENCHLIST>
0

> <HEROMAP>
0

> <ITNANTIBIOTIC>
0

> <KEMIMARKET>
0

> <MASSBANKREF>
0

> <MASSBANKEUSP>
0

> <NEMILIST>
0

> <NATADB>
0

> <NIOSHIDLH>
0

> <NIOSHICSC>
0

> <NIOSHNPG>
0

> <NIOSHSKIN>
0

> <NORMANCT15>
0

> <SFISHFLUORO>
0

> <NORMANPRI>
0

> <NORMANEWS>
0

> <PFASTRIER>
0

> <SWISSPHARMA>
0

> <PPRTVWEB>
0

> <STOCKHOLM>
0

> <STOFFIDENT>
0

> <SCDM>
0

> <EAWAGSURF>
0

> <SWISSPEST>
0

> <TOX21SL>
0

> <TOXCAST>
0

> <TOXCAST_E1K>
0

> <TOXCAST_PH1V2>
0

> <TOXCAST_PH2>
0

> <TOXCAST_PH3>
0

> <TOXCAST_PHASEI>
0

> <TOXCAST_PHASEII>
0

> <TOXCAST_PHASEIII>
0

> <TRIRELEASE>
0

> <TSCASURF>
0

> <UJIBADE>
0

> <ATHENSSUS>
0

> <UATHTARGETS>
0

$$$$

  Mrv1533009301518342D          

  0  0  0     0  0            999 V3000
M  V30 BEGIN CTAB
M  V30 COUNTS 12 13 0 0 0
M  V30 BEGIN ATOM
M  V30 1 N 4.4137 -3.3727 0 0
M  V30 2 N 4.4137 4.3275 0 0
M  V30 3 C 4.4137 -0.2927 0 0
M  V30 4 C 3.08 -1.0627 0 0
M  V30 5 C 5.7475 -1.0627 0 0
M  V30 6 C 3.08 -2.6027 0 0
M  V30 7 C 5.7475 -2.6027 0 0
M  V30 8 C 4.4137 1.2475 0 0
M  V30 9 C 3.08 2.0175 0 0
M  V30 10 C 5.7475 2.0175 0 0
M  V30 11 C 3.08 3.5575 0 0
M  V30 12 C 5.7475 3.5575 0 0
M  V30 END ATOM
M  V30 BEGIN BOND
M  V30 1 1 1 6
M  V30 2 1 1 7
M  V30 3 2 2 11
M  V30 4 1 2 12
M  V30 5 1 3 4
M  V30 6 1 3 5
M  V30 7 1 3 8
M  V30 8 1 4 6
M  V30 9 1 5 7
M  V30 10 2 8 9
M  V30 11 1 8 10
M  V30 12 1 9 11
M  V30 13 2 10 12
M  V30 END BOND
M  V30 END CTAB
M  END

> <INPUT>
C10H14N2

> <FOUND_BY>
MS Ready Formula

> <DTXCID_INDIVIDUAL_COMPONENT>
DTXCID80311782

> <FORMULA_INDIVIDUAL_COMPONENT>
C10H14N2

> <SMILES_INDIVIDUAL_COMPONENT>
C1CC(CCN1)C1=CC=NC=C1

> <MAPPED_DTXSID>
DTXSID40360731

> <PREFERRED_NAME_DTXSID>
4-(piperidin-4-yl)pyridine

> <CASRN_DTXSID>
581-45-3

> <FORMULA_MAPPED_DTXSID>
C10H14N2

> <SMILES_MAPPED_DTXSID>
C1CC(CCN1)C1=CC=NC=C1

> <MS_READY_SMILES>
C1CC(CCN1)C1=CC=NC=C1

> <INCHI_STRING_DTXCID>
InChI=1S/C10H14N2/c1-5-11-6-2-9(1)10-3-7-12-8-4-10/h1-2,5-6,10,12H,3-4,7-8H2

> <INCHIKEY_DTXCID>
RGBWBVGQZFJTEO-UHFFFAOYSA-N

> <MONOISOTOPIC_MASS_DTXCID>
162.115698459

> <EXPOCAST_MEDIAN_EXPOSURE_PREDICTION_MG/KG-BW/DAY>
-

> <EXPOCAST>
0

> <NHANES>
0

> <DATA_SOURCES>
2

> <TOXVAL_DATA>
0

> <TOXCAST_PERCENT_ACTIVE>
-

> <TOXCAST_NUMBER_OF_ASSAYS/TOTAL>
-

> <NUMBER_OF_PUBMED_ARTICLES>
-

> <PUBCHEM_DATA_SOURCES>
65

> <CPDAT_COUNT>
-

> <ATMOSPHERIC_HYDROXYLATION_RATE_(AOH)_CM3/MOLECULE*SEC_OPERA_PRED>
4.36871e-11

> <BIOCONCENTRATION_FACTOR_OPERA_PRED>
8.90381

> <BIODEGRADATION_HALF_LIFE_DAYS_DAYS_OPERA_PRED>
3.18154

> <BOILING_POINT_DEGC_OPERA_PRED>
281.219

> <HENRYS_LAW_ATM-M3/MOLE_OPERA_PRED>
2.82898e-07

> <OPERA_KM_DAYS_OPERA_PRED>
0.13916

> <OCTANOL_AIR_PARTITION_COEFF_LOGKOA_OPERA_PRED>
8.36352

> <SOIL_ADSORPTION_COEFFICIENT_KOC_L/KG_OPERA_PRED>
111.685

> <OCTANOL_WATER_PARTITION_LOGP_OPERA_PRED>
0.919953

> <MELTING_POINT_DEGC_OPERA_PRED>
66.1629

> <VAPOR_PRESSURE_MMHG_OPERA_PRED>
0.0121414

> <WATER_SOLUBILITY_MOL/L_OPERA_PRED>
0.985535

> <TEST_BCF_TEST_PRED>
13.4896

> <BOILING_POINT_DEGC_TEST_PRED>
273.592

> <DENSITY_G/CM^3_TEST_PRED>
1.065

> <FLASH_POINT_DEGC_TEST_PRED>
133.904

> <MELTING_POINT_DEGC_TEST_PRED>
74.753

> <SURFACE_TENSION_DYN/CM_TEST_PRED>
39.481

> <THERMAL_CONDUCTIVITY_MW/(M*K)_TEST_PRED>
149.749

> <VISCOSITY_CP_CP_TEST_PRED>
10.1625

> <VAPOR_PRESSURE_MMHG_TEST_PRED>
0.00316957

> <WATER_SOLUBILITY_MOL/L_TEST_PRED>
0.0363915

> <AEGLVALUES>
0

> <ALGALTOX>
0

> <ARCHEMICALS>
0

> <ATSDRLST>
0

> <BISPHENOLS>
0

> <OEHHA>
0

> <CERAPP>
0

> <FUNNAMES>
0

> <KWRSJERPS>
0

> <EPACONS>
0

> <IRIS>
0

> <EPAHFR>
0

> <EUCOSMETICS>
0

> <FRENCHLIST>
0

> <HEROMAP>
0

> <ITNANTIBIOTIC>
0

> <KEMIMARKET>
0

> <MASSBANKREF>
0

> <MASSBANKEUSP>
0

> <NEMILIST>
0

> <NATADB>
0

> <NIOSHIDLH>
0

> <NIOSHICSC>
0

> <NIOSHNPG>
0

> <NIOSHSKIN>
0

> <NORMANCT15>
0

> <SFISHFLUORO>
0

> <NORMANPRI>
0

> <NORMANEWS>
0

> <PFASTRIER>
0

> <SWISSPHARMA>
0

> <PPRTVWEB>
0

> <STOCKHOLM>
0

> <STOFFIDENT>
0

> <SCDM>
0

> <EAWAGSURF>
0

> <SWISSPEST>
0

> <TOX21SL>
0

> <TOXCAST>
0

> <TOXCAST_E1K>
0

> <TOXCAST_PH1V2>
0

> <TOXCAST_PH2>
0

> <TOXCAST_PH3>
0

> <TOXCAST_PHASEI>
0

> <TOXCAST_PHASEII>
0

> <TOXCAST_PHASEIII>
0

> <TRIRELEASE>
0

> <TSCASURF>
0

> <UJIBADE>
0

> <ATHENSSUS>
0

> <UATHTARGETS>
0

$$$$

  Mrv1533009301518402D          

  0  0  0     0  0            999 V3000
M  V30 BEGIN CTAB
M  V30 COUNTS 12 13 0 0 0
M  V30 BEGIN ATOM
M  V30 1 N 4.0346 1.2867 0 0
M  V30 2 N 7.4695 -0.1361 0 0
M  V30 3 C 6.0469 3.2986 0 0
M  V30 4 C 7.4695 2.7095 0 0
M  V30 5 C 4.6241 2.7095 0 0
M  V30 6 C 8.0588 1.2867 0 0
M  V30 7 C 4.6241 -0.1361 0 0
M  V30 8 C 6.0469 -0.7254 0 0
M  V30 9 C 3.3365 -1.0929 0 0
M  V30 10 C 6.2806 -2.3124 0 0
M  V30 11 C 3.5336 -2.6848 0 0
M  V30 12 C 5.0157 -3.2986 0 0
M  V30 END ATOM
M  V30 BEGIN BOND
M  V30 1 1 1 5
M  V30 2 1 1 7
M  V30 3 1 2 6
M  V30 4 1 2 8
M  V30 5 1 3 4
M  V30 6 1 3 5
M  V30 7 1 4 6
M  V30 8 1 7 8
M  V30 9 2 7 9
M  V30 10 2 8 10
M  V30 11 1 9 11
M  V30 12 1 10 12
M  V30 13 2 11 12
M  V30 END BOND
M  V30 END CTAB
M  END

> <INPUT>
C10H14N2

> <FOUND_BY>
MS Ready Formula

> <DTXCID_INDIVIDUAL_COMPONENT>
DTXCID80329100

> <FORMULA_INDIVIDUAL_COMPONENT>
C10H14N2

> <SMILES_INDIVIDUAL_COMPONENT>
C1CCNC2=CC=CC=C2NC1

> <MAPPED_DTXSID>
DTXSID80378072

> <PREFERRED_NAME_DTXSID>
1,2,3,4,5,6-hexahydro-1,6-benzodiazocine

> <CASRN_DTXSID>
39161-58-5

> <FORMULA_MAPPED_DTXSID>
C10H14N2

> <SMILES_MAPPED_DTXSID>
C1CCNC2=CC=CC=C2NC1

> <MS_READY_SMILES>
C1CCNC2=CC=CC=C2NC1

> <INCHI_STRING_DTXCID>
InChI=1S/C10H14N2/c1-2-6-10-9(5-1)11-7-3-4-8-12-10/h1-2,5-6,11-12H,3-4,7-8H2

> <INCHIKEY_DTXCID>
RFRZYBRMESKXKP-UHFFFAOYSA-N

> <MONOISOTOPIC_MASS_DTXCID>
162.115698459

> <EXPOCAST_MEDIAN_EXPOSURE_PREDICTION_MG/KG-BW/DAY>
-

> <EXPOCAST>
0

> <NHANES>
0

> <DATA_SOURCES>
2

> <TOXVAL_DATA>
0

> <TOXCAST_PERCENT_ACTIVE>
-

> <TOXCAST_NUMBER_OF_ASSAYS/TOTAL>
-

> <NUMBER_OF_PUBMED_ARTICLES>
-

> <PUBCHEM_DATA_SOURCES>
26

> <CPDAT_COUNT>
-

> <ATMOSPHERIC_HYDROXYLATION_RATE_(AOH)_CM3/MOLECULE*SEC_OPERA_PRED>
1.82586e-11

> <BIOCONCENTRATION_FACTOR_OPERA_PRED>
9.84862

> <BIODEGRADATION_HALF_LIFE_DAYS_DAYS_OPERA_PRED>
3.74099

> <BOILING_POINT_DEGC_OPERA_PRED>
263.155

> <HENRYS_LAW_ATM-M3/MOLE_OPERA_PRED>
3.67216e-08

> <OPERA_KM_DAYS_OPERA_PRED>
0.163988

> <OCTANOL_AIR_PARTITION_COEFF_LOGKOA_OPERA_PRED>
8.06144

> <SOIL_ADSORPTION_COEFFICIENT_KOC_L/KG_OPERA_PRED>
134.477

> <OCTANOL_WATER_PARTITION_LOGP_OPERA_PRED>
1.40033

> <MELTING_POINT_DEGC_OPERA_PRED>
78.0323

> <VAPOR_PRESSURE_MMHG_OPERA_PRED>
8.47834e-05

> <WATER_SOLUBILITY_MOL/L_OPERA_PRED>
0.142265

> <TEST_BCF_TEST_PRED>
8.57038

> <BOILING_POINT_DEGC_TEST_PRED>
281.395

> <DENSITY_G/CM^3_TEST_PRED>
1.051

> <FLASH_POINT_DEGC_TEST_PRED>
135.026

> <MELTING_POINT_DEGC_TEST_PRED>
75.224

> <SURFACE_TENSION_DYN/CM_TEST_PRED>
-

> <THERMAL_CONDUCTIVITY_MW/(M*K)_TEST_PRED>
170.734

> <VISCOSITY_CP_CP_TEST_PRED>
9.52796

> <VAPOR_PRESSURE_MMHG_TEST_PRED>
3.16957e-05

> <WATER_SOLUBILITY_MOL/L_TEST_PRED>
0.0053827

> <AEGLVALUES>
0

> <ALGALTOX>
0

> <ARCHEMICALS>
0

> <ATSDRLST>
0

> <BISPHENOLS>
0

> <OEHHA>
0

> <CERAPP>
0

> <FUNNAMES>
0

> <KWRSJERPS>
0

> <EPACONS>
0

> <IRIS>
0

> <EPAHFR>
0

> <EUCOSMETICS>
0

> <FRENCHLIST>
0

> <HEROMAP>
0

> <ITNANTIBIOTIC>
0

> <KEMIMARKET>
0

> <MASSBANKREF>
0

> <MASSBANKEUSP>
0

> <NEMILIST>
0

> <NATADB>
0

> <NIOSHIDLH>
0

> <NIOSHICSC>
0

> <NIOSHNPG>
0

> <NIOSHSKIN>
0

> <NORMANCT15>
0

> <SFISHFLUORO>
0

> <NORMANPRI>
0

> <NORMANEWS>
0

> <PFASTRIER>
0

> <SWISSPHARMA>
0

> <PPRTVWEB>
0

> <STOCKHOLM>
0

> <STOFFIDENT>
0

> <SCDM>
0

> <EAWAGSURF>
0

> <SWISSPEST>
0

> <TOX21SL>
0

> <TOXCAST>
0

> <TOXCAST_E1K>
0

> <TOXCAST_PH1V2>
0

> <TOXCAST_PH2>
0

> <TOXCAST_PH3>
0

> <TOXCAST_PHASEI>
0

> <TOXCAST_PHASEII>
0

> <TOXCAST_PHASEIII>
0

> <TRIRELEASE>
0

> <TSCASURF>
0

> <UJIBADE>
0

> <ATHENSSUS>
0

> <UATHTARGETS>
0

$$$$

  Mrv1533009301518492D          

  0  0  0     0  0            999 V3000
M  V30 BEGIN CTAB
M  V30 COUNTS 12 12 0 0 0
M  V30 BEGIN ATOM
M  V30 1 N 7.081 3.9963 0 0
M  V30 2 N 8.4147 1.6863 0 0
M  V30 3 C 5.7473 0.1463 0 0
M  V30 4 C 4.4137 -2.1637 0 0
M  V30 5 C 5.7473 -2.9337 0 0
M  V30 6 C 4.4137 -0.6237 0 0
M  V30 7 C 5.7473 1.6863 0 0
M  V30 8 C 7.081 -0.6237 0 0
M  V30 9 C 7.081 -2.1637 0 0
M  V30 10 C 3.08 -2.9337 0 0
M  V30 11 C 5.7473 -4.4737 0 0
M  V30 12 C 7.081 2.4563 0 0
M  V30 END ATOM
M  V30 BEGIN BOND
M  V30 1 1 1 12
M  V30 2 2 2 12
M  V30 3 2 3 6
M  V30 4 1 3 7
M  V30 5 1 3 8
M  V30 6 2 4 5
M  V30 7 1 4 6
M  V30 8 1 4 10
M  V30 9 1 5 9
M  V30 10 1 5 11
M  V30 11 1 7 12
M  V30 12 2 8 9
M  V30 END BOND
M  V30 END CTAB
M  END

> <INPUT>
C10H14N2

> <FOUND_BY>
MS Ready Formula

> <DTXCID_INDIVIDUAL_COMPONENT>
DTXCID40358118

> <FORMULA_INDIVIDUAL_COMPONENT>
C10H14N2

> <SMILES_INDIVIDUAL_COMPONENT>
CC1=C(C)C=C(CC(N)=N)C=C1

> <MAPPED_DTXSID>
DTXSID90407266

> <PREFERRED_NAME_DTXSID>
2-(3,4-dimethylphenyl)ethanimidamide

> <CASRN_DTXSID>
6511-96-2

> <FORMULA_MAPPED_DTXSID>
C10H14N2

> <SMILES_MAPPED_DTXSID>
CC1=C(C)C=C(CC(N)=N)C=C1

> <MS_READY_SMILES>
CC1=C(C)C=C(CC(N)=N)C=C1

> <INCHI_STRING_DTXCID>
InChI=1S/C10H14N2/c1-7-3-4-9(5-8(7)2)6-10(11)12/h3-5H,6H2,1-2H3,(H3,11,12)

> <INCHIKEY_DTXCID>
HDWGUBKBOQWZIY-UHFFFAOYSA-N

> <MONOISOTOPIC_MASS_DTXCID>
162.115698459

> <EXPOCAST_MEDIAN_EXPOSURE_PREDICTION_MG/KG-BW/DAY>
-

> <EXPOCAST>
0

> <NHANES>
0

> <DATA_SOURCES>
2

> <TOXVAL_DATA>
0

> <TOXCAST_PERCENT_ACTIVE>
-

> <TOXCAST_NUMBER_OF_ASSAYS/TOTAL>
-

> <NUMBER_OF_PUBMED_ARTICLES>
-

> <PUBCHEM_DATA_SOURCES>
16

> <CPDAT_COUNT>
-

> <ATMOSPHERIC_HYDROXYLATION_RATE_(AOH)_CM3/MOLECULE*SEC_OPERA_PRED>
1.50758e-11

> <BIOCONCENTRATION_FACTOR_OPERA_PRED>
8.89108

> <BIODEGRADATION_HALF_LIFE_DAYS_DAYS_OPERA_PRED>
3.92436

> <BOILING_POINT_DEGC_OPERA_PRED>
303.947

> <HENRYS_LAW_ATM-M3/MOLE_OPERA_PRED>
1.60087e-07

> <OPERA_KM_DAYS_OPERA_PRED>
0.408527

> <OCTANOL_AIR_PARTITION_COEFF_LOGKOA_OPERA_PRED>
7.8497

> <SOIL_ADSORPTION_COEFFICIENT_KOC_L/KG_OPERA_PRED>
106.867

> <OCTANOL_WATER_PARTITION_LOGP_OPERA_PRED>
1.67

> <MELTING_POINT_DEGC_OPERA_PRED>
162.774

> <VAPOR_PRESSURE_MMHG_OPERA_PRED>
0.00237139

> <WATER_SOLUBILITY_MOL/L_OPERA_PRED>
0.00379334

> <TEST_BCF_TEST_PRED>
-

> <BOILING_POINT_DEGC_TEST_PRED>
-

> <DENSITY_G/CM^3_TEST_PRED>
1.247

> <FLASH_POINT_DEGC_TEST_PRED>
133.135

> <MELTING_POINT_DEGC_TEST_PRED>
150.348

> <SURFACE_TENSION_DYN/CM_TEST_PRED>
-

> <THERMAL_CONDUCTIVITY_MW/(M*K)_TEST_PRED>
-

> <VISCOSITY_CP_CP_TEST_PRED>
-

> <VAPOR_PRESSURE_MMHG_TEST_PRED>
-

> <WATER_SOLUBILITY_MOL/L_TEST_PRED>
-

> <AEGLVALUES>
0

> <ALGALTOX>
0

> <ARCHEMICALS>
0

> <ATSDRLST>
0

> <BISPHENOLS>
0

> <OEHHA>
0

> <CERAPP>
0

> <FUNNAMES>
0

> <KWRSJERPS>
0

> <EPACONS>
0

> <IRIS>
0

> <EPAHFR>
0

> <EUCOSMETICS>
0

> <FRENCHLIST>
0

> <HEROMAP>
0

> <ITNANTIBIOTIC>
0

> <KEMIMARKET>
0

> <MASSBANKREF>
0

> <MASSBANKEUSP>
0

> <NEMILIST>
0

> <NATADB>
0

> <NIOSHIDLH>
0

> <NIOSHICSC>
0

> <NIOSHNPG>
0

> <NIOSHSKIN>
0

> <NORMANCT15>
0

> <SFISHFLUORO>
0

> <NORMANPRI>
0

> <NORMANEWS>
0

> <PFASTRIER>
0

> <SWISSPHARMA>
0

> <PPRTVWEB>
0

> <STOCKHOLM>
0

> <STOFFIDENT>
0

> <SCDM>
0

> <EAWAGSURF>
0

> <SWISSPEST>
0

> <TOX21SL>
0

> <TOXCAST>
0

> <TOXCAST_E1K>
0

> <TOXCAST_PH1V2>
0

> <TOXCAST_PH2>
0

> <TOXCAST_PH3>
0

> <TOXCAST_PHASEI>
0

> <TOXCAST_PHASEII>
0

> <TOXCAST_PHASEIII>
0

> <TRIRELEASE>
0

> <TSCASURF>
0

> <UJIBADE>
0

> <ATHENSSUS>
0

> <UATHTARGETS>
0

$$$$

  Mrv1533009301518522D          

  0  0  0     0  0            999 V3000
M  V30 BEGIN CTAB
M  V30 COUNTS 12 13 0 0 0
M  V30 BEGIN ATOM
M  V30 1 N 6.7893 -1.7302 0 0
M  V30 2 N 6.7893 1.7302 0 0
M  V30 3 C 4.6198 0 0 0
M  V30 4 C 5.2881 -1.3875 0 0
M  V30 5 C 5.2881 1.3875 0 0
M  V30 6 C 3.0798 0 0 0
M  V30 7 C 7.9933 -0.77 0 0
M  V30 8 C 7.9933 0.77 0 0
M  V30 9 C 9.3699 -1.5934 0 0
M  V30 10 C 9.3699 1.5934 0 0
M  V30 11 C 10.7651 -0.8019 0 0
M  V30 12 C 10.7651 0.8019 0 0
M  V30 END ATOM
M  V30 BEGIN BOND
M  V30 1 1 1 4
M  V30 2 1 1 7
M  V30 3 1 2 5
M  V30 4 1 2 8
M  V30 5 1 3 4
M  V30 6 1 3 5
M  V30 7 1 3 6
M  V30 8 1 7 8
M  V30 9 2 7 9
M  V30 10 2 8 10
M  V30 11 1 9 11
M  V30 12 1 10 12
M  V30 13 2 11 12
M  V30 END BOND
M  V30 END CTAB
M  END

> <INPUT>
C10H14N2

> <FOUND_BY>
MS Ready Formula

> <DTXCID_INDIVIDUAL_COMPONENT>
DTXCID30366747

> <FORMULA_INDIVIDUAL_COMPONENT>
C10H14N2

> <SMILES_INDIVIDUAL_COMPONENT>
CC1CNC2=CC=CC=C2NC1

> <MAPPED_DTXSID>
DTXSID60415898

> <PREFERRED_NAME_DTXSID>
3-methyl-2,3,4,5-tetrahydro-1H-1,5-benzodiazepine

> <CASRN_DTXSID>
133405-86-4

> <FORMULA_MAPPED_DTXSID>
C10H14N2

> <SMILES_MAPPED_DTXSID>
CC1CNC2=CC=CC=C2NC1

> <MS_READY_SMILES>
CC1CNC2=CC=CC=C2NC1

> <INCHI_STRING_DTXCID>
InChI=1S/C10H14N2/c1-8-6-11-9-4-2-3-5-10(9)12-7-8/h2-5,8,11-12H,6-7H2,1H3

> <INCHIKEY_DTXCID>
BGDQHQHPELLNKQ-UHFFFAOYSA-N

> <MONOISOTOPIC_MASS_DTXCID>
162.115698459

> <EXPOCAST_MEDIAN_EXPOSURE_PREDICTION_MG/KG-BW/DAY>
-

> <EXPOCAST>
0

> <NHANES>
0

> <DATA_SOURCES>
2

> <TOXVAL_DATA>
0

> <TOXCAST_PERCENT_ACTIVE>
-

> <TOXCAST_NUMBER_OF_ASSAYS/TOTAL>
-

> <NUMBER_OF_PUBMED_ARTICLES>
-

> <PUBCHEM_DATA_SOURCES>
19

> <CPDAT_COUNT>
-

> <ATMOSPHERIC_HYDROXYLATION_RATE_(AOH)_CM3/MOLECULE*SEC_OPERA_PRED>
1.87184e-11

> <BIOCONCENTRATION_FACTOR_OPERA_PRED>
9.10999

> <BIODEGRADATION_HALF_LIFE_DAYS_DAYS_OPERA_PRED>
2.59582

> <BOILING_POINT_DEGC_OPERA_PRED>
266.38

> <HENRYS_LAW_ATM-M3/MOLE_OPERA_PRED>
3.64488e-08

> <OPERA_KM_DAYS_OPERA_PRED>
0.162971

> <OCTANOL_AIR_PARTITION_COEFF_LOGKOA_OPERA_PRED>
7.95019

> <SOIL_ADSORPTION_COEFFICIENT_KOC_L/KG_OPERA_PRED>
152.34

> <OCTANOL_WATER_PARTITION_LOGP_OPERA_PRED>
1.58682

> <MELTING_POINT_DEGC_OPERA_PRED>
77.0768

> <VAPOR_PRESSURE_MMHG_OPERA_PRED>
0.000132161

> <WATER_SOLUBILITY_MOL/L_OPERA_PRED>
0.19644

> <TEST_BCF_TEST_PRED>
18.1552

> <BOILING_POINT_DEGC_TEST_PRED>
273.065

> <DENSITY_G/CM^3_TEST_PRED>
1.039

> <FLASH_POINT_DEGC_TEST_PRED>
132.525

> <MELTING_POINT_DEGC_TEST_PRED>
100.284

> <SURFACE_TENSION_DYN/CM_TEST_PRED>
-

> <THERMAL_CONDUCTIVITY_MW/(M*K)_TEST_PRED>
164.749

> <VISCOSITY_CP_CP_TEST_PRED>
14.2889

> <VAPOR_PRESSURE_MMHG_TEST_PRED>
5.21195e-05

> <WATER_SOLUBILITY_MOL/L_TEST_PRED>
0.00952796

> <AEGLVALUES>
0

> <ALGALTOX>
0

> <ARCHEMICALS>
0

> <ATSDRLST>
0

> <BISPHENOLS>
0

> <OEHHA>
0

> <CERAPP>
0

> <FUNNAMES>
0

> <KWRSJERPS>
0

> <EPACONS>
0

> <IRIS>
0

> <EPAHFR>
0

> <EUCOSMETICS>
0

> <FRENCHLIST>
0

> <HEROMAP>
0

> <ITNANTIBIOTIC>
0

> <KEMIMARKET>
0

> <MASSBANKREF>
0

> <MASSBANKEUSP>
0

> <NEMILIST>
0

> <NATADB>
0

> <NIOSHIDLH>
0

> <NIOSHICSC>
0

> <NIOSHNPG>
0

> <NIOSHSKIN>
0

> <NORMANCT15>
0

> <SFISHFLUORO>
0

> <NORMANPRI>
0

> <NORMANEWS>
0

> <PFASTRIER>
0

> <SWISSPHARMA>
0

> <PPRTVWEB>
0

> <STOCKHOLM>
0

> <STOFFIDENT>
0

> <SCDM>
0

> <EAWAGSURF>
0

> <SWISSPEST>
0

> <TOX21SL>
0

> <TOXCAST>
0

> <TOXCAST_E1K>
0

> <TOXCAST_PH1V2>
0

> <TOXCAST_PH2>
0

> <TOXCAST_PH3>
0

> <TOXCAST_PHASEI>
0

> <TOXCAST_PHASEII>
0

> <TOXCAST_PHASEIII>
0

> <TRIRELEASE>
0

> <TSCASURF>
0

> <UJIBADE>
0

> <ATHENSSUS>
0

> <UATHTARGETS>
0

$$$$

  Mrv1533009301518522D          

  0  0  0     0  0            999 V3000
M  V30 BEGIN CTAB
M  V30 COUNTS 12 13 0 0 1
M  V30 BEGIN ATOM
M  V30 1 N 5.7473 -2.2833 0 0
M  V30 2 N 4.4137 3.1067 0 0
M  V30 3 C 5.7473 -0.7433 0 0
M  V30 4 C 7.1241 -3.1067 0 0
M  V30 5 C 7.1241 0.0801 0 0
M  V30 6 C 4.4137 -3.0533 0 0
M  V30 7 C 8.5195 -2.3154 0 0
M  V30 8 C 8.5195 -0.7114 0 0
M  V30 9 C 3.08 -2.2833 0 0
M  V30 10 C 3.08 -0.7433 0 0
M  V30 11 C 4.4137 0.0267 0 0
M  V30 12 C 4.4137 1.5667 0 0
M  V30 END ATOM
M  V30 BEGIN BOND
M  V30 1 1 1 3
M  V30 2 1 1 4
M  V30 3 1 1 6
M  V30 4 3 2 12
M  V30 5 1 3 5
M  V30 6 2 3 11
M  V30 7 1 4 7
M  V30 8 1 5 8
M  V30 9 1 6 9
M  V30 10 1 7 8
M  V30 11 1 9 10
M  V30 12 1 10 11
M  V30 13 1 11 12
M  V30 END BOND
M  V30 END CTAB
M  END

> <INPUT>
C10H14N2

> <FOUND_BY>
MS Ready Formula

> <DTXCID_INDIVIDUAL_COMPONENT>
DTXCID70366847

> <FORMULA_INDIVIDUAL_COMPONENT>
C10H14N2

> <SMILES_INDIVIDUAL_COMPONENT>
N#CC1=C2CCCCN2CCC1

> <MAPPED_DTXSID>
DTXSID00415998

> <PREFERRED_NAME_DTXSID>
2H-Quinolizine-1-carbonitrile, 3,4,6,7,8,9-hexahydro-

> <CASRN_DTXSID>
145801-19-0

> <FORMULA_MAPPED_DTXSID>
C10H14N2

> <SMILES_MAPPED_DTXSID>
N#CC1=C2CCCCN2CCC1

> <MS_READY_SMILES>
N#CC1=C2CCCCN2CCC1

> <INCHI_STRING_DTXCID>
InChI=1S/C10H14N2/c11-8-9-4-3-7-12-6-2-1-5-10(9)12/h1-7H2

> <INCHIKEY_DTXCID>
VDHOBIAQGHQZPW-UHFFFAOYSA-N

> <MONOISOTOPIC_MASS_DTXCID>
162.115698459

> <EXPOCAST_MEDIAN_EXPOSURE_PREDICTION_MG/KG-BW/DAY>
-

> <EXPOCAST>
0

> <NHANES>
0

> <DATA_SOURCES>
2

> <TOXVAL_DATA>
0

> <TOXCAST_PERCENT_ACTIVE>
-

> <TOXCAST_NUMBER_OF_ASSAYS/TOTAL>
-

> <NUMBER_OF_PUBMED_ARTICLES>
-

> <PUBCHEM_DATA_SOURCES>
13

> <CPDAT_COUNT>
-

> <ATMOSPHERIC_HYDROXYLATION_RATE_(AOH)_CM3/MOLECULE*SEC_OPERA_PRED>
3.1805e-11

> <BIOCONCENTRATION_FACTOR_OPERA_PRED>
8.26521

> <BIODEGRADATION_HALF_LIFE_DAYS_DAYS_OPERA_PRED>
3.55603

> <BOILING_POINT_DEGC_OPERA_PRED>
276.331

> <HENRYS_LAW_ATM-M3/MOLE_OPERA_PRED>
6.77649e-07

> <OPERA_KM_DAYS_OPERA_PRED>
0.257486

> <OCTANOL_AIR_PARTITION_COEFF_LOGKOA_OPERA_PRED>
6.08283

> <SOIL_ADSORPTION_COEFFICIENT_KOC_L/KG_OPERA_PRED>
157.212

> <OCTANOL_WATER_PARTITION_LOGP_OPERA_PRED>
0.958546

> <MELTING_POINT_DEGC_OPERA_PRED>
74.8524

> <VAPOR_PRESSURE_MMHG_OPERA_PRED>
0.00205266

> <WATER_SOLUBILITY_MOL/L_OPERA_PRED>
0.352658

> <TEST_BCF_TEST_PRED>
-

> <BOILING_POINT_DEGC_TEST_PRED>
254.047

> <DENSITY_G/CM^3_TEST_PRED>
1.17

> <FLASH_POINT_DEGC_TEST_PRED>
123.45

> <MELTING_POINT_DEGC_TEST_PRED>
97.92

> <SURFACE_TENSION_DYN/CM_TEST_PRED>
36.884

> <THERMAL_CONDUCTIVITY_MW/(M*K)_TEST_PRED>
164.916

> <VISCOSITY_CP_CP_TEST_PRED>
-

> <VAPOR_PRESSURE_MMHG_TEST_PRED>
-

> <WATER_SOLUBILITY_MOL/L_TEST_PRED>
0.00404576

> <AEGLVALUES>
0

> <ALGALTOX>
0

> <ARCHEMICALS>
0

> <ATSDRLST>
0

> <BISPHENOLS>
0

> <OEHHA>
0

> <CERAPP>
0

> <FUNNAMES>
0

> <KWRSJERPS>
0

> <EPACONS>
0

> <IRIS>
0

> <EPAHFR>
0

> <EUCOSMETICS>
0

> <FRENCHLIST>
0

> <HEROMAP>
0

> <ITNANTIBIOTIC>
0

> <KEMIMARKET>
0

> <MASSBANKREF>
0

> <MASSBANKEUSP>
0

> <NEMILIST>
0

> <NATADB>
0

> <NIOSHIDLH>
0

> <NIOSHICSC>
0

> <NIOSHNPG>
0

> <NIOSHSKIN>
0

> <NORMANCT15>
0

> <SFISHFLUORO>
0

> <NORMANPRI>
0

> <NORMANEWS>
0

> <PFASTRIER>
0

> <SWISSPHARMA>
0

> <PPRTVWEB>
0

> <STOCKHOLM>
0

> <STOFFIDENT>
0

> <SCDM>
0

> <EAWAGSURF>
0

> <SWISSPEST>
0

> <TOX21SL>
0

> <TOXCAST>
0

> <TOXCAST_E1K>
0

> <TOXCAST_PH1V2>
0

> <TOXCAST_PH2>
0

> <TOXCAST_PH3>
0

> <TOXCAST_PHASEI>
0

> <TOXCAST_PHASEII>
0

> <TOXCAST_PHASEIII>
0

> <TRIRELEASE>
0

> <TSCASURF>
0

> <UJIBADE>
0

> <ATHENSSUS>
0

> <UATHTARGETS>
0

$$$$

  Mrv1533009301517252D          

  0  0  0     0  0            999 V3000
M  V30 BEGIN CTAB
M  V30 COUNTS 12 13 0 0 0
M  V30 BEGIN ATOM
M  V30 1 C 2.3066 -6.6665 0 0
M  V30 2 C 3.0799 -5.3332 0 0
M  V30 3 N 2.3066 -3.9999 0 0
M  V30 4 C 0.7667 -3.9999 0 0
M  V30 5 C 0 -5.3332 0 0
M  V30 6 N 0.7667 -6.6665 0 0
M  V30 7 C 3.0799 -2.6665 0 0
M  V30 8 C 4.6199 -2.6665 0 0
M  V30 9 C 5.3866 -1.3333 0 0
M  V30 10 C 4.6199 0 0 0
M  V30 11 C 3.0799 0 0 0
M  V30 12 C 2.3066 -1.3333 0 0
M  V30 END ATOM
M  V30 BEGIN BOND
M  V30 1 1 1 2
M  V30 2 1 1 6
M  V30 3 1 2 3
M  V30 4 1 3 4
M  V30 5 1 3 7
M  V30 6 1 4 5
M  V30 7 1 5 6
M  V30 8 2 7 8
M  V30 9 1 7 12
M  V30 10 1 8 9
M  V30 11 2 9 10
M  V30 12 1 10 11
M  V30 13 2 11 12
M  V30 END BOND
M  V30 END CTAB
M  END

> <INPUT>
C10H14N2

> <FOUND_BY>
MS Ready Formula

> <DTXCID_INDIVIDUAL_COMPONENT>
DTXCID9031644

> <FORMULA_INDIVIDUAL_COMPONENT>
C10H14N2

> <SMILES_INDIVIDUAL_COMPONENT>
C1CN(CCN1)C1=CC=CC=C1

> <MAPPED_DTXSID>
DTXSID80419030

> <PREFERRED_NAME_DTXSID>
NSC110641

> <CASRN_DTXSID>
23245-37-6

> <FORMULA_MAPPED_DTXSID>
C19H22N2O2

> <SMILES_MAPPED_DTXSID>
OC(=O)\C=C/C1=CC=CC=C1.C1CN(CCN1)C1=CC=CC=C1

> <MS_READY_SMILES>
C1CN(CCN1)C1=CC=CC=C1,OC(=O)C=CC1=CC=CC=C1

> <INCHI_STRING_DTXCID>
InChI=1S/C10H14N2/c1-2-4-10(5-3-1)12-8-6-11-7-9-12/h1-5,11H,6-9H2

> <INCHIKEY_DTXCID>
YZTJYBJCZXZGCT-UHFFFAOYSA-N

> <MONOISOTOPIC_MASS_DTXCID>
162.115698459

> <EXPOCAST_MEDIAN_EXPOSURE_PREDICTION_MG/KG-BW/DAY>
-

> <EXPOCAST>
0

> <NHANES>
0

> <DATA_SOURCES>
2

> <TOXVAL_DATA>
0

> <TOXCAST_PERCENT_ACTIVE>
-

> <TOXCAST_NUMBER_OF_ASSAYS/TOTAL>
-

> <NUMBER_OF_PUBMED_ARTICLES>
-

> <PUBCHEM_DATA_SOURCES>
6

> <CPDAT_COUNT>
-

> <ATMOSPHERIC_HYDROXYLATION_RATE_(AOH)_CM3/MOLECULE*SEC_OPERA_PRED>
1.75521e-11

> <BIOCONCENTRATION_FACTOR_OPERA_PRED>
6.19709

> <BIODEGRADATION_HALF_LIFE_DAYS_DAYS_OPERA_PRED>
12.0774

> <BOILING_POINT_DEGC_OPERA_PRED>
288.087

> <HENRYS_LAW_ATM-M3/MOLE_OPERA_PRED>
2.60688e-07

> <OPERA_KM_DAYS_OPERA_PRED>
0.30067

> <OCTANOL_AIR_PARTITION_COEFF_LOGKOA_OPERA_PRED>
8.55338

> <SOIL_ADSORPTION_COEFFICIENT_KOC_L/KG_OPERA_PRED>
160.634

> <OCTANOL_WATER_PARTITION_LOGP_OPERA_PRED>
1.21176

> <MELTING_POINT_DEGC_OPERA_PRED>
45.9369

> <VAPOR_PRESSURE_MMHG_OPERA_PRED>
0.00666262

> <WATER_SOLUBILITY_MOL/L_OPERA_PRED>
0.145931

> <TEST_BCF_TEST_PRED>
8.24138

> <BOILING_POINT_DEGC_TEST_PRED>
272.941

> <DENSITY_G/CM^3_TEST_PRED>
1.028

> <FLASH_POINT_DEGC_TEST_PRED>
118.779

> <MELTING_POINT_DEGC_TEST_PRED>
57.971

> <SURFACE_TENSION_DYN/CM_TEST_PRED>
37.464

> <THERMAL_CONDUCTIVITY_MW/(M*K)_TEST_PRED>
161.939

> <VISCOSITY_CP_CP_TEST_PRED>
7.16143

> <VAPOR_PRESSURE_MMHG_TEST_PRED>
0.00416869

> <WATER_SOLUBILITY_MOL/L_TEST_PRED>
0.0399025

> <AEGLVALUES>
0

> <ALGALTOX>
0

> <ARCHEMICALS>
0

> <ATSDRLST>
0

> <BISPHENOLS>
0

> <OEHHA>
0

> <CERAPP>
0

> <FUNNAMES>
0

> <KWRSJERPS>
0

> <EPACONS>
0

> <IRIS>
0

> <EPAHFR>
0

> <EUCOSMETICS>
0

> <FRENCHLIST>
0

> <HEROMAP>
0

> <ITNANTIBIOTIC>
0

> <KEMIMARKET>
0

> <MASSBANKREF>
0

> <MASSBANKEUSP>
0

> <NEMILIST>
0

> <NATADB>
0

> <NIOSHIDLH>
0

> <NIOSHICSC>
0

> <NIOSHNPG>
0

> <NIOSHSKIN>
0

> <NORMANCT15>
0

> <SFISHFLUORO>
0

> <NORMANPRI>
0

> <NORMANEWS>
0

> <PFASTRIER>
0

> <SWISSPHARMA>
0

> <PPRTVWEB>
0

> <STOCKHOLM>
0

> <STOFFIDENT>
0

> <SCDM>
0

> <EAWAGSURF>
0

> <SWISSPEST>
0

> <TOX21SL>
0

> <TOXCAST>
0

> <TOXCAST_E1K>
0

> <TOXCAST_PH1V2>
0

> <TOXCAST_PH2>
0

> <TOXCAST_PH3>
0

> <TOXCAST_PHASEI>
0

> <TOXCAST_PHASEII>
0

> <TOXCAST_PHASEIII>
0

> <TRIRELEASE>
0

> <TSCASURF>
0

> <UJIBADE>
0

> <ATHENSSUS>
0

> <UATHTARGETS>
0

$$$$

  Mrv1533009301519002D          

  0  0  0     0  0            999 V3000
M  V30 BEGIN CTAB
M  V30 COUNTS 12 13 0 0 0
M  V30 BEGIN ATOM
M  V30 1 N 4.4137 -3.3727 0 0
M  V30 2 N 3.08 2.0175 0 0
M  V30 3 C 4.4137 -0.2927 0 0
M  V30 4 C 3.08 -1.0627 0 0
M  V30 5 C 5.7475 -1.0627 0 0
M  V30 6 C 3.08 -2.6027 0 0
M  V30 7 C 5.7475 -2.6027 0 0
M  V30 8 C 4.4137 1.2475 0 0
M  V30 9 C 5.7475 2.0175 0 0
M  V30 10 C 5.7475 3.5575 0 0
M  V30 11 C 3.08 3.5575 0 0
M  V30 12 C 4.4137 4.3275 0 0
M  V30 END ATOM
M  V30 BEGIN BOND
M  V30 1 1 1 6
M  V30 2 1 1 7
M  V30 3 1 2 8
M  V30 4 2 2 11
M  V30 5 1 3 4
M  V30 6 1 3 5
M  V30 7 1 3 8
M  V30 8 1 4 6
M  V30 9 1 5 7
M  V30 10 2 8 9
M  V30 11 1 9 10
M  V30 12 2 10 12
M  V30 13 1 11 12
M  V30 END BOND
M  V30 END CTAB
M  END

> <INPUT>
C10H14N2

> <FOUND_BY>
MS Ready Formula

> <DTXCID_INDIVIDUAL_COMPONENT>
DTXCID10389651

> <FORMULA_INDIVIDUAL_COMPONENT>
C10H14N2

> <SMILES_INDIVIDUAL_COMPONENT>
C1CC(CCN1)C1=CC=CC=N1

> <MAPPED_DTXSID>
DTXSID00438829

> <PREFERRED_NAME_DTXSID>
2-(Piperidin-4-yl)pyridine

> <CASRN_DTXSID>
30532-37-7

> <FORMULA_MAPPED_DTXSID>
C10H14N2

> <SMILES_MAPPED_DTXSID>
C1CC(CCN1)C1=CC=CC=N1

> <MS_READY_SMILES>
C1CC(CCN1)C1=CC=CC=N1

> <INCHI_STRING_DTXCID>
InChI=1S/C10H14N2/c1-2-6-12-10(3-1)9-4-7-11-8-5-9/h1-3,6,9,11H,4-5,7-8H2

> <INCHIKEY_DTXCID>
KVNQCSIGNRPHHM-UHFFFAOYSA-N

> <MONOISOTOPIC_MASS_DTXCID>
162.115698459

> <EXPOCAST_MEDIAN_EXPOSURE_PREDICTION_MG/KG-BW/DAY>
-

> <EXPOCAST>
0

> <NHANES>
0

> <DATA_SOURCES>
2

> <TOXVAL_DATA>
0

> <TOXCAST_PERCENT_ACTIVE>
-

> <TOXCAST_NUMBER_OF_ASSAYS/TOTAL>
-

> <NUMBER_OF_PUBMED_ARTICLES>
-

> <PUBCHEM_DATA_SOURCES>
45

> <CPDAT_COUNT>
-

> <ATMOSPHERIC_HYDROXYLATION_RATE_(AOH)_CM3/MOLECULE*SEC_OPERA_PRED>
2.11832e-11

> <BIOCONCENTRATION_FACTOR_OPERA_PRED>
12.5782

> <BIODEGRADATION_HALF_LIFE_DAYS_DAYS_OPERA_PRED>
2.77436

> <BOILING_POINT_DEGC_OPERA_PRED>
282.29

> <HENRYS_LAW_ATM-M3/MOLE_OPERA_PRED>
2.83931e-07

> <OPERA_KM_DAYS_OPERA_PRED>
0.222491

> <OCTANOL_AIR_PARTITION_COEFF_LOGKOA_OPERA_PRED>
8.36352

> <SOIL_ADSORPTION_COEFFICIENT_KOC_L/KG_OPERA_PRED>
123.202

> <OCTANOL_WATER_PARTITION_LOGP_OPERA_PRED>
0.897407

> <MELTING_POINT_DEGC_OPERA_PRED>
78.2369

> <VAPOR_PRESSURE_MMHG_OPERA_PRED>
0.0115445

> <WATER_SOLUBILITY_MOL/L_OPERA_PRED>
0.414985

> <TEST_BCF_TEST_PRED>
12.0226

> <BOILING_POINT_DEGC_TEST_PRED>
257.718

> <DENSITY_G/CM^3_TEST_PRED>
1.034

> <FLASH_POINT_DEGC_TEST_PRED>
111.995

> <MELTING_POINT_DEGC_TEST_PRED>
62.774

> <SURFACE_TENSION_DYN/CM_TEST_PRED>
37.708

> <THERMAL_CONDUCTIVITY_MW/(M*K)_TEST_PRED>
148.882

> <VISCOSITY_CP_CP_TEST_PRED>
12.9122

> <VAPOR_PRESSURE_MMHG_TEST_PRED>
0.00462381

> <WATER_SOLUBILITY_MOL/L_TEST_PRED>
0.0395367

> <AEGLVALUES>
0

> <ALGALTOX>
0

> <ARCHEMICALS>
0

> <ATSDRLST>
0

> <BISPHENOLS>
0

> <OEHHA>
0

> <CERAPP>
0

> <FUNNAMES>
0

> <KWRSJERPS>
0

> <EPACONS>
0

> <IRIS>
0

> <EPAHFR>
0

> <EUCOSMETICS>
0

> <FRENCHLIST>
0

> <HEROMAP>
0

> <ITNANTIBIOTIC>
0

> <KEMIMARKET>
0

> <MASSBANKREF>
0

> <MASSBANKEUSP>
0

> <NEMILIST>
0

> <NATADB>
0

> <NIOSHIDLH>
0

> <NIOSHICSC>
0

> <NIOSHNPG>
0

> <NIOSHSKIN>
0

> <NORMANCT15>
0

> <SFISHFLUORO>
0

> <NORMANPRI>
0

> <NORMANEWS>
0

> <PFASTRIER>
0

> <SWISSPHARMA>
0

> <PPRTVWEB>
0

> <STOCKHOLM>
0

> <STOFFIDENT>
0

> <SCDM>
0

> <EAWAGSURF>
0

> <SWISSPEST>
0

> <TOX21SL>
0

> <TOXCAST>
0

> <TOXCAST_E1K>
0

> <TOXCAST_PH1V2>
0

> <TOXCAST_PH2>
0

> <TOXCAST_PH3>
0

> <TOXCAST_PHASEI>
0

> <TOXCAST_PHASEII>
0

> <TOXCAST_PHASEIII>
0

> <TRIRELEASE>
0

> <TSCASURF>
0

> <UJIBADE>
0

> <ATHENSSUS>
0

> <UATHTARGETS>
0

$$$$

  Mrv1533009301519022D          

  0  0  0     0  0            999 V3000
M  V30 BEGIN CTAB
M  V30 COUNTS 12 13 0 0 0
M  V30 BEGIN ATOM
M  V30 1 N 5.2496 1.2305 0 0
M  V30 2 N 3.7483 -1.8872 0 0
M  V30 3 C 6.4534 0.2705 0 0
M  V30 4 C 6.4534 -1.2695 0 0
M  V30 5 C 5.2496 -2.2297 0 0
M  V30 6 C 3.7483 0.8878 0 0
M  V30 7 C 3.08 -0.4995 0 0
M  V30 8 C 7.8303 1.0937 0 0
M  V30 9 C 7.8303 -2.0931 0 0
M  V30 10 C 9.2254 0.3024 0 0
M  V30 11 C 9.2254 -1.3018 0 0
M  V30 12 C 7.8124 2.6337 0 0
M  V30 END ATOM
M  V30 BEGIN BOND
M  V30 1 1 1 3
M  V30 2 1 1 6
M  V30 3 1 2 5
M  V30 4 1 2 7
M  V30 5 1 3 4
M  V30 6 2 3 8
M  V30 7 1 4 5
M  V30 8 2 4 9
M  V30 9 1 6 7
M  V30 10 1 8 10
M  V30 11 1 8 12
M  V30 12 1 9 11
M  V30 13 2 10 11
M  V30 END BOND
M  V30 END CTAB
M  END

> <INPUT>
C10H14N2

> <FOUND_BY>
MS Ready Formula

> <DTXCID_INDIVIDUAL_COMPONENT>
DTXCID90393170

> <FORMULA_INDIVIDUAL_COMPONENT>
C10H14N2

> <SMILES_INDIVIDUAL_COMPONENT>
CC1=C2NCCNCC2=CC=C1

> <MAPPED_DTXSID>
DTXSID40442349

> <PREFERRED_NAME_DTXSID>
9-Methyl-2,3,4,5-tetrahydro-1H-benzo[e][1,4]diazepine

> <CASRN_DTXSID>
195986-82-4

> <FORMULA_MAPPED_DTXSID>
C10H14N2

> <SMILES_MAPPED_DTXSID>
CC1=C2NCCNCC2=CC=C1

> <MS_READY_SMILES>
CC1=C2NCCNCC2=CC=C1

> <INCHI_STRING_DTXCID>
InChI=1S/C10H14N2/c1-8-3-2-4-9-7-11-5-6-12-10(8)9/h2-4,11-12H,5-7H2,1H3

> <INCHIKEY_DTXCID>
LCZRNBVXQPCCDG-UHFFFAOYSA-N

> <MONOISOTOPIC_MASS_DTXCID>
162.115698459

> <EXPOCAST_MEDIAN_EXPOSURE_PREDICTION_MG/KG-BW/DAY>
-

> <EXPOCAST>
0

> <NHANES>
0

> <DATA_SOURCES>
2

> <TOXVAL_DATA>
0

> <TOXCAST_PERCENT_ACTIVE>
-

> <TOXCAST_NUMBER_OF_ASSAYS/TOTAL>
-

> <NUMBER_OF_PUBMED_ARTICLES>
-

> <PUBCHEM_DATA_SOURCES>
41

> <CPDAT_COUNT>
-

> <ATMOSPHERIC_HYDROXYLATION_RATE_(AOH)_CM3/MOLECULE*SEC_OPERA_PRED>
2.1618e-11

> <BIOCONCENTRATION_FACTOR_OPERA_PRED>
7.41083

> <BIODEGRADATION_HALF_LIFE_DAYS_DAYS_OPERA_PRED>
2.59139

> <BOILING_POINT_DEGC_OPERA_PRED>
266.658

> <HENRYS_LAW_ATM-M3/MOLE_OPERA_PRED>
3.55944e-08

> <OPERA_KM_DAYS_OPERA_PRED>
0.163972

> <OCTANOL_AIR_PARTITION_COEFF_LOGKOA_OPERA_PRED>
7.95044

> <SOIL_ADSORPTION_COEFFICIENT_KOC_L/KG_OPERA_PRED>
87.8591

> <OCTANOL_WATER_PARTITION_LOGP_OPERA_PRED>
0.772837

> <MELTING_POINT_DEGC_OPERA_PRED>
93.1678

> <VAPOR_PRESSURE_MMHG_OPERA_PRED>
0.000144434

> <WATER_SOLUBILITY_MOL/L_OPERA_PRED>
0.0297209

> <TEST_BCF_TEST_PRED>
7.8886

> <BOILING_POINT_DEGC_TEST_PRED>
294.944

> <DENSITY_G/CM^3_TEST_PRED>
1.03

> <FLASH_POINT_DEGC_TEST_PRED>
112.686

> <MELTING_POINT_DEGC_TEST_PRED>
97.63

> <SURFACE_TENSION_DYN/CM_TEST_PRED>
-

> <THERMAL_CONDUCTIVITY_MW/(M*K)_TEST_PRED>
166.089

> <VISCOSITY_CP_CP_TEST_PRED>
14.388

> <VAPOR_PRESSURE_MMHG_TEST_PRED>
4.86407e-05

> <WATER_SOLUBILITY_MOL/L_TEST_PRED>
0.0202302

> <AEGLVALUES>
0

> <ALGALTOX>
0

> <ARCHEMICALS>
0

> <ATSDRLST>
0

> <BISPHENOLS>
0

> <OEHHA>
0

> <CERAPP>
0

> <FUNNAMES>
0

> <KWRSJERPS>
0

> <EPACONS>
0

> <IRIS>
0

> <EPAHFR>
0

> <EUCOSMETICS>
0

> <FRENCHLIST>
0

> <HEROMAP>
0

> <ITNANTIBIOTIC>
0

> <KEMIMARKET>
0

> <MASSBANKREF>
0

> <MASSBANKEUSP>
0

> <NEMILIST>
0

> <NATADB>
0

> <NIOSHIDLH>
0

> <NIOSHICSC>
0

> <NIOSHNPG>
0

> <NIOSHSKIN>
0

> <NORMANCT15>
0

> <SFISHFLUORO>
0

> <NORMANPRI>
0

> <NORMANEWS>
0

> <PFASTRIER>
0

> <SWISSPHARMA>
0

> <PPRTVWEB>
0

> <STOCKHOLM>
0

> <STOFFIDENT>
0

> <SCDM>
0

> <EAWAGSURF>
0

> <SWISSPEST>
0

> <TOX21SL>
0

> <TOXCAST>
0

> <TOXCAST_E1K>
0

> <TOXCAST_PH1V2>
0

> <TOXCAST_PH2>
0

> <TOXCAST_PH3>
0

> <TOXCAST_PHASEI>
0

> <TOXCAST_PHASEII>
0

> <TOXCAST_PHASEIII>
0

> <TRIRELEASE>
0

> <TSCASURF>
0

> <UJIBADE>
0

> <ATHENSSUS>
0

> <UATHTARGETS>
0

$$$$

  Mrv1611108211713492D          

  0  0  0     0  0            999 V3000
M  V30 BEGIN CTAB
M  V30 COUNTS 12 13 0 0 0
M  V30 BEGIN ATOM
M  V30 1 N 5.3343 -2.0521 0 0
M  V30 2 C 4.0583 -2.9401 0 0
M  V30 3 C 2.6507 -2.3152 0 0
M  V30 4 N 1.3352 0 0 0
M  V30 5 C 2.6507 -0.7762 0 0
M  V30 6 C 6.5774 -2.927 0 0
M  V30 7 C 5.3343 -0.4801 0 0
M  V30 8 C 4.5581 -4.4069 0 0
M  V30 9 C 6.1301 -4.4069 0 0
M  V30 10 C 1.3352 -3.0717 0 0
M  V30 11 C 0 -0.7565 0 0
M  V30 12 C 0 -2.3152 0 0
M  V30 END ATOM
M  V30 BEGIN BOND
M  V30 1 1 1 2
M  V30 2 1 1 6
M  V30 3 1 1 7
M  V30 4 1 2 3
M  V30 5 1 2 8
M  V30 6 2 3 5
M  V30 7 1 3 10
M  V30 8 1 4 5
M  V30 9 2 4 11
M  V30 10 1 6 9
M  V30 11 1 8 9
M  V30 12 2 10 12
M  V30 13 1 11 12
M  V30 END BOND
M  V30 END CTAB
M  END

> <INPUT>
C10H14N2

> <FOUND_BY>
MS Ready Formula

> <DTXCID_INDIVIDUAL_COMPONENT>
DTXCID9028128

> <FORMULA_INDIVIDUAL_COMPONENT>
C10H14N2

> <SMILES_INDIVIDUAL_COMPONENT>
CN1CCCC1C1=CN=CC=C1

> <MAPPED_DTXSID>
DTXSID80442666

> <PREFERRED_NAME_DTXSID>
DL-Nicotine-d3

> <CASRN_DTXSID>
69980-24-1

> <FORMULA_MAPPED_DTXSID>
C10H11D3N2

> <SMILES_MAPPED_DTXSID>
[2H]C([2H])([2H])N1CCCC1C1=CN=CC=C1

> <MS_READY_SMILES>
-

> <INCHI_STRING_DTXCID>
InChI=1S/C10H14N2/c1-12-7-3-5-10(12)9-4-2-6-11-8-9/h2,4,6,8,10H,3,5,7H2,1H3

> <INCHIKEY_DTXCID>
SNICXCGAKADSCV-UHFFFAOYSA-N

> <MONOISOTOPIC_MASS_DTXCID>
162.115698459

> <EXPOCAST_MEDIAN_EXPOSURE_PREDICTION_MG/KG-BW/DAY>
-

> <EXPOCAST>
0

> <NHANES>
0

> <DATA_SOURCES>
2

> <TOXVAL_DATA>
0

> <TOXCAST_PERCENT_ACTIVE>
-

> <TOXCAST_NUMBER_OF_ASSAYS/TOTAL>
-

> <NUMBER_OF_PUBMED_ARTICLES>
-

> <PUBCHEM_DATA_SOURCES>
18

> <CPDAT_COUNT>
-

> <ATMOSPHERIC_HYDROXYLATION_RATE_(AOH)_CM3/MOLECULE*SEC_OPERA_PRED>
4.3164e-11

> <BIOCONCENTRATION_FACTOR_OPERA_PRED>
6.524

> <BIODEGRADATION_HALF_LIFE_DAYS_DAYS_OPERA_PRED>
3.36018

> <BOILING_POINT_DEGC_OPERA_PRED>
253.418

> <HENRYS_LAW_ATM-M3/MOLE_OPERA_PRED>
6.65993e-06

> <OPERA_KM_DAYS_OPERA_PRED>
5.93649

> <OCTANOL_AIR_PARTITION_COEFF_LOGKOA_OPERA_PRED>
5.80576

> <SOIL_ADSORPTION_COEFFICIENT_KOC_L/KG_OPERA_PRED>
110.746

> <OCTANOL_WATER_PARTITION_LOGP_OPERA_PRED>
1.17766

> <MELTING_POINT_DEGC_OPERA_PRED>
-34.4392

> <VAPOR_PRESSURE_MMHG_OPERA_PRED>
0.013088

> <WATER_SOLUBILITY_MOL/L_OPERA_PRED>
4.51047

> <TEST_BCF_TEST_PRED>
11.995

> <BOILING_POINT_DEGC_TEST_PRED>
244.899

> <DENSITY_G/CM^3_TEST_PRED>
1.03

> <FLASH_POINT_DEGC_TEST_PRED>
95.541

> <MELTING_POINT_DEGC_TEST_PRED>
18.147

> <SURFACE_TENSION_DYN/CM_TEST_PRED>
36.302

> <THERMAL_CONDUCTIVITY_MW/(M*K)_TEST_PRED>
143.221

> <VISCOSITY_CP_CP_TEST_PRED>
7.2778

> <VAPOR_PRESSURE_MMHG_TEST_PRED>
0.00436516

> <WATER_SOLUBILITY_MOL/L_TEST_PRED>
0.0799834

> <AEGLVALUES>
0

> <ALGALTOX>
0

> <ARCHEMICALS>
0

> <ATSDRLST>
0

> <BISPHENOLS>
0

> <OEHHA>
0

> <CERAPP>
0

> <FUNNAMES>
0

> <KWRSJERPS>
0

> <EPACONS>
0

> <IRIS>
0

> <EPAHFR>
0

> <EUCOSMETICS>
0

> <FRENCHLIST>
0

> <HEROMAP>
0

> <ITNANTIBIOTIC>
0

> <KEMIMARKET>
0

> <MASSBANKREF>
0

> <MASSBANKEUSP>
0

> <NEMILIST>
0

> <NATADB>
0

> <NIOSHIDLH>
0

> <NIOSHICSC>
0

> <NIOSHNPG>
0

> <NIOSHSKIN>
0

> <NORMANCT15>
0

> <SFISHFLUORO>
0

> <NORMANPRI>
0

> <NORMANEWS>
0

> <PFASTRIER>
0

> <SWISSPHARMA>
0

> <PPRTVWEB>
0

> <STOCKHOLM>
0

> <STOFFIDENT>
0

> <SCDM>
0

> <EAWAGSURF>
0

> <SWISSPEST>
0

> <TOX21SL>
0

> <TOXCAST>
0

> <TOXCAST_E1K>
0

> <TOXCAST_PH1V2>
0

> <TOXCAST_PH2>
0

> <TOXCAST_PH3>
0

> <TOXCAST_PHASEI>
0

> <TOXCAST_PHASEII>
0

> <TOXCAST_PHASEIII>
0

> <TRIRELEASE>
0

> <TSCASURF>
0

> <UJIBADE>
0

> <ATHENSSUS>
0

> <UATHTARGETS>
0

$$$$

  Mrv1533009301519202D          

  0  0  0     0  0            999 V3000
M  V30 BEGIN CTAB
M  V30 COUNTS 12 13 0 0 0
M  V30 BEGIN ATOM
M  V30 1 N 8.4577 -1.8594 0 0
M  V30 2 N 5.7473 -1.806 0 0
M  V30 3 C 8.4577 1.3274 0 0
M  V30 4 C 9.853 0.5361 0 0
M  V30 5 C 7.081 0.504 0 0
M  V30 6 C 9.853 -1.0679 0 0
M  V30 7 C 7.081 -1.036 0 0
M  V30 8 C 5.7473 1.274 0 0
M  V30 9 C 4.4135 0.504 0 0
M  V30 10 C 4.4135 -1.036 0 0
M  V30 11 C 5.7473 2.814 0 0
M  V30 12 C 3.08 -1.806 0 0
M  V30 END ATOM
M  V30 BEGIN BOND
M  V30 1 1 1 6
M  V30 2 1 1 7
M  V30 3 1 2 7
M  V30 4 2 2 10
M  V30 5 1 3 4
M  V30 6 1 3 5
M  V30 7 1 4 6
M  V30 8 2 5 7
M  V30 9 1 5 8
M  V30 10 2 8 9
M  V30 11 1 8 11
M  V30 12 1 9 10
M  V30 13 1 10 12
M  V30 END BOND
M  V30 END CTAB
M  END

> <INPUT>
C10H14N2

> <FOUND_BY>
MS Ready Formula

> <DTXCID_INDIVIDUAL_COMPONENT>
DTXCID20446067

> <FORMULA_INDIVIDUAL_COMPONENT>
C10H14N2

> <SMILES_INDIVIDUAL_COMPONENT>
CC1=NC2=C(CCCN2)C(C)=C1

> <MAPPED_DTXSID>
DTXSID20495257

> <PREFERRED_NAME_DTXSID>
5,7-Dimethyl-1,2,3,4-tetrahydro-1,8-naphthyridine

> <CASRN_DTXSID>
65541-95-9

> <FORMULA_MAPPED_DTXSID>
C10H14N2

> <SMILES_MAPPED_DTXSID>
CC1=NC2=C(CCCN2)C(C)=C1

> <MS_READY_SMILES>
CC1=NC2=C(CCCN2)C(C)=C1

> <INCHI_STRING_DTXCID>
InChI=1S/C10H14N2/c1-7-6-8(2)12-10-9(7)4-3-5-11-10/h6H,3-5H2,1-2H3,(H,11,12)

> <INCHIKEY_DTXCID>
DXIRHDQUVVQLGI-UHFFFAOYSA-N

> <MONOISOTOPIC_MASS_DTXCID>
162.115698459

> <EXPOCAST_MEDIAN_EXPOSURE_PREDICTION_MG/KG-BW/DAY>
-

> <EXPOCAST>
0

> <NHANES>
0

> <DATA_SOURCES>
2

> <TOXVAL_DATA>
0

> <TOXCAST_PERCENT_ACTIVE>
-

> <TOXCAST_NUMBER_OF_ASSAYS/TOTAL>
-

> <NUMBER_OF_PUBMED_ARTICLES>
-

> <PUBCHEM_DATA_SOURCES>
25

> <CPDAT_COUNT>
-

> <ATMOSPHERIC_HYDROXYLATION_RATE_(AOH)_CM3/MOLECULE*SEC_OPERA_PRED>
2.12383e-11

> <BIOCONCENTRATION_FACTOR_OPERA_PRED>
8.86928

> <BIODEGRADATION_HALF_LIFE_DAYS_DAYS_OPERA_PRED>
3.17283

> <BOILING_POINT_DEGC_OPERA_PRED>
287.55

> <HENRYS_LAW_ATM-M3/MOLE_OPERA_PRED>
3.02318e-07

> <OPERA_KM_DAYS_OPERA_PRED>
0.364665

> <OCTANOL_AIR_PARTITION_COEFF_LOGKOA_OPERA_PRED>
8.65998

> <SOIL_ADSORPTION_COEFFICIENT_KOC_L/KG_OPERA_PRED>
107.519

> <OCTANOL_WATER_PARTITION_LOGP_OPERA_PRED>
1.0012

> <MELTING_POINT_DEGC_OPERA_PRED>
148.372

> <VAPOR_PRESSURE_MMHG_OPERA_PRED>
8.6239e-05

> <WATER_SOLUBILITY_MOL/L_OPERA_PRED>
0.00683811

> <TEST_BCF_TEST_PRED>
21.3796

> <BOILING_POINT_DEGC_TEST_PRED>
288.151

> <DENSITY_G/CM^3_TEST_PRED>
1.062

> <FLASH_POINT_DEGC_TEST_PRED>
124.06

> <MELTING_POINT_DEGC_TEST_PRED>
81.412

> <SURFACE_TENSION_DYN/CM_TEST_PRED>
-

> <THERMAL_CONDUCTIVITY_MW/(M*K)_TEST_PRED>
138.156

> <VISCOSITY_CP_CP_TEST_PRED>
-

> <VAPOR_PRESSURE_MMHG_TEST_PRED>
0.000796159

> <WATER_SOLUBILITY_MOL/L_TEST_PRED>
0.0111429

> <AEGLVALUES>
0

> <ALGALTOX>
0

> <ARCHEMICALS>
0

> <ATSDRLST>
0

> <BISPHENOLS>
0

> <OEHHA>
0

> <CERAPP>
0

> <FUNNAMES>
0

> <KWRSJERPS>
0

> <EPACONS>
0

> <IRIS>
0

> <EPAHFR>
0

> <EUCOSMETICS>
0

> <FRENCHLIST>
0

> <HEROMAP>
0

> <ITNANTIBIOTIC>
0

> <KEMIMARKET>
0

> <MASSBANKREF>
0

> <MASSBANKEUSP>
0

> <NEMILIST>
0

> <NATADB>
0

> <NIOSHIDLH>
0

> <NIOSHICSC>
0

> <NIOSHNPG>
0

> <NIOSHSKIN>
0

> <NORMANCT15>
0

> <SFISHFLUORO>
0

> <NORMANPRI>
0

> <NORMANEWS>
0

> <PFASTRIER>
0

> <SWISSPHARMA>
0

> <PPRTVWEB>
0

> <STOCKHOLM>
0

> <STOFFIDENT>
0

> <SCDM>
0

> <EAWAGSURF>
0

> <SWISSPEST>
0

> <TOX21SL>
0

> <TOXCAST>
0

> <TOXCAST_E1K>
0

> <TOXCAST_PH1V2>
0

> <TOXCAST_PH2>
0

> <TOXCAST_PH3>
0

> <TOXCAST_PHASEI>
0

> <TOXCAST_PHASEII>
0

> <TOXCAST_PHASEIII>
0

> <TRIRELEASE>
0

> <TSCASURF>
0

> <UJIBADE>
0

> <ATHENSSUS>
0

> <UATHTARGETS>
0

$$$$
459662
  Mrv1611109301620472D          

  0  0  0     0  0            999 V3000
M  V30 BEGIN CTAB
M  V30 COUNTS 12 13 0 0 0
M  V30 BEGIN ATOM
M  V30 1 N 1.6457 -3.8357 0 0
M  V30 2 C 1.1698 -5.3004 0 0
M  V30 3 C -0.3702 -5.3004 0 0
M  V30 4 C -0.846 -3.8357 0 0
M  V30 5 C 0.3998 -2.9305 0 0
M  V30 6 C 0.3998 -1.3905 0 0
M  V30 7 C -0.9338 -0.6205 0 0
M  V30 8 N -0.9338 0.9195 0 0
M  V30 9 C 0.3998 1.6895 0 0
M  V30 10 C 0.3998 3.2295 0 0
M  V30 11 C 1.7335 0.9195 0 0
M  V30 12 C 1.7335 -0.6205 0 0
M  V30 END ATOM
M  V30 BEGIN BOND
M  V30 1 1 1 2
M  V30 2 1 2 3
M  V30 3 1 3 4
M  V30 4 1 4 5
M  V30 5 1 5 1
M  V30 6 1 5 6
M  V30 7 2 6 7
M  V30 8 1 7 8
M  V30 9 2 8 9
M  V30 10 1 9 10
M  V30 11 1 9 11
M  V30 12 2 11 12
M  V30 13 1 12 6
M  V30 END BOND
M  V30 END CTAB
M  END

> <INPUT>
C10H14N2

> <FOUND_BY>
MS Ready Formula

> <DTXCID_INDIVIDUAL_COMPONENT>
DTXCID30972044

> <FORMULA_INDIVIDUAL_COMPONENT>
C10H14N2

> <SMILES_INDIVIDUAL_COMPONENT>
CC1=NC=C(C=C1)C1CCCN1

> <MAPPED_DTXSID>
DTXSID60508855

> <PREFERRED_NAME_DTXSID>
2-Methyl-5-(pyrrolidin-2-yl)pyridine

> <CASRN_DTXSID>
90872-72-3

> <FORMULA_MAPPED_DTXSID>
C10H14N2

> <SMILES_MAPPED_DTXSID>
CC1=NC=C(C=C1)C1CCCN1

> <MS_READY_SMILES>
CC1=NC=C(C=C1)C1CCCN1

> <INCHI_STRING_DTXCID>
InChI=1S/C10H14N2/c1-8-4-5-9(7-12-8)10-3-2-6-11-10/h4-5,7,10-11H,2-3,6H2,1H3

> <INCHIKEY_DTXCID>
WZVVISVPTUREQN-UHFFFAOYSA-N

> <MONOISOTOPIC_MASS_DTXCID>
162.115698459

> <EXPOCAST_MEDIAN_EXPOSURE_PREDICTION_MG/KG-BW/DAY>
-

> <EXPOCAST>
0

> <NHANES>
0

> <DATA_SOURCES>
2

> <TOXVAL_DATA>
0

> <TOXCAST_PERCENT_ACTIVE>
-

> <TOXCAST_NUMBER_OF_ASSAYS/TOTAL>
-

> <NUMBER_OF_PUBMED_ARTICLES>
-

> <PUBCHEM_DATA_SOURCES>
26

> <CPDAT_COUNT>
-

> <ATMOSPHERIC_HYDROXYLATION_RATE_(AOH)_CM3/MOLECULE*SEC_OPERA_PRED>
1.97955e-11

> <BIOCONCENTRATION_FACTOR_OPERA_PRED>
7.94074

> <BIODEGRADATION_HALF_LIFE_DAYS_DAYS_OPERA_PRED>
3.16872

> <BOILING_POINT_DEGC_OPERA_PRED>
281.255

> <HENRYS_LAW_ATM-M3/MOLE_OPERA_PRED>
2.82813e-07

> <OPERA_KM_DAYS_OPERA_PRED>
0.43621

> <OCTANOL_AIR_PARTITION_COEFF_LOGKOA_OPERA_PRED>
8.35452

> <SOIL_ADSORPTION_COEFFICIENT_KOC_L/KG_OPERA_PRED>
149.42

> <OCTANOL_WATER_PARTITION_LOGP_OPERA_PRED>
1.11719

> <MELTING_POINT_DEGC_OPERA_PRED>
87.1316

> <VAPOR_PRESSURE_MMHG_OPERA_PRED>
0.0118208

> <WATER_SOLUBILITY_MOL/L_OPERA_PRED>
0.351536

> <TEST_BCF_TEST_PRED>
9.01571

> <BOILING_POINT_DEGC_TEST_PRED>
267.164

> <DENSITY_G/CM^3_TEST_PRED>
1.035

> <FLASH_POINT_DEGC_TEST_PRED>
110.717

> <MELTING_POINT_DEGC_TEST_PRED>
30.269

> <SURFACE_TENSION_DYN/CM_TEST_PRED>
37.781

> <THERMAL_CONDUCTIVITY_MW/(M*K)_TEST_PRED>
143.637

> <VISCOSITY_CP_CP_TEST_PRED>
11.7761

> <VAPOR_PRESSURE_MMHG_TEST_PRED>
0.000851138

> <WATER_SOLUBILITY_MOL/L_TEST_PRED>
0.0429536

> <AEGLVALUES>
0

> <ALGALTOX>
0

> <ARCHEMICALS>
0

> <ATSDRLST>
0

> <BISPHENOLS>
0

> <OEHHA>
0

> <CERAPP>
0

> <FUNNAMES>
0

> <KWRSJERPS>
0

> <EPACONS>
0

> <IRIS>
0

> <EPAHFR>
0

> <EUCOSMETICS>
0

> <FRENCHLIST>
0

> <HEROMAP>
0

> <ITNANTIBIOTIC>
0

> <KEMIMARKET>
0

> <MASSBANKREF>
0

> <MASSBANKEUSP>
0

> <NEMILIST>
0

> <NATADB>
0

> <NIOSHIDLH>
0

> <NIOSHICSC>
0

> <NIOSHNPG>
0

> <NIOSHSKIN>
0

> <NORMANCT15>
0

> <SFISHFLUORO>
0

> <NORMANPRI>
0

> <NORMANEWS>
0

> <PFASTRIER>
0

> <SWISSPHARMA>
0

> <PPRTVWEB>
0

> <STOCKHOLM>
0

> <STOFFIDENT>
0

> <SCDM>
0

> <EAWAGSURF>
0

> <SWISSPEST>
0

> <TOX21SL>
0

> <TOXCAST>
0

> <TOXCAST_E1K>
0

> <TOXCAST_PH1V2>
0

> <TOXCAST_PH2>
0

> <TOXCAST_PH3>
0

> <TOXCAST_PHASEI>
0

> <TOXCAST_PHASEII>
0

> <TOXCAST_PHASEIII>
0

> <TRIRELEASE>
0

> <TSCASURF>
0

> <UJIBADE>
0

> <ATHENSSUS>
0

> <UATHTARGETS>
0

$$$$
511011
  Mrv1611109301618002D          

  0  0  0     0  0            999 V3000
M  V30 BEGIN CTAB
M  V30 COUNTS 12 13 0 0 0
M  V30 BEGIN ATOM
M  V30 1 N 1.2161 -0.8966 0 0
M  V30 2 C -0.1176 -1.6666 0 0
M  V30 3 C -1.4512 -0.8966 0 0
M  V30 4 C -1.4512 0.6434 0 0
M  V30 5 C -0.1176 1.4134 0 0
M  V30 6 C -0.1176 2.9534 0 0
M  V30 7 C -1.4512 3.7234 0 0
M  V30 8 C -1.4512 5.2634 0 0
M  V30 9 C -0.1176 6.0334 0 0
M  V30 10 C 1.2161 5.2634 0 0
M  V30 11 N 1.2161 3.7234 0 0
M  V30 12 C 1.2161 0.6434 0 0
M  V30 END ATOM
M  V30 BEGIN BOND
M  V30 1 1 1 2
M  V30 2 1 2 3
M  V30 3 1 3 4
M  V30 4 1 4 5
M  V30 5 1 5 6
M  V30 6 2 6 7
M  V30 7 1 7 8
M  V30 8 2 8 9
M  V30 9 1 9 10
M  V30 10 2 10 11
M  V30 11 1 11 6
M  V30 12 1 5 12
M  V30 13 1 12 1
M  V30 END BOND
M  V30 END CTAB
M  END

> <INPUT>
C10H14N2

> <FOUND_BY>
MS Ready Formula

> <DTXCID_INDIVIDUAL_COMPONENT>
DTXCID70944003

> <FORMULA_INDIVIDUAL_COMPONENT>
C10H14N2

> <SMILES_INDIVIDUAL_COMPONENT>
C1CNCC(C1)C1=CC=CC=N1

> <MAPPED_DTXSID>
DTXSID80560233

> <PREFERRED_NAME_DTXSID>
2-(Piperidin-3-yl)pyridine

> <CASRN_DTXSID>
40864-10-6

> <FORMULA_MAPPED_DTXSID>
C10H14N2

> <SMILES_MAPPED_DTXSID>
C1CNCC(C1)C1=CC=CC=N1

> <MS_READY_SMILES>
C1CNCC(C1)C1=CC=CC=N1

> <INCHI_STRING_DTXCID>
InChI=1S/C10H14N2/c1-2-7-12-10(5-1)9-4-3-6-11-8-9/h1-2,5,7,9,11H,3-4,6,8H2

> <INCHIKEY_DTXCID>
ZCEKZDKAGHJNRD-UHFFFAOYSA-N

> <MONOISOTOPIC_MASS_DTXCID>
162.115698459

> <EXPOCAST_MEDIAN_EXPOSURE_PREDICTION_MG/KG-BW/DAY>
-

> <EXPOCAST>
0

> <NHANES>
0

> <DATA_SOURCES>
2

> <TOXVAL_DATA>
0

> <TOXCAST_PERCENT_ACTIVE>
-

> <TOXCAST_NUMBER_OF_ASSAYS/TOTAL>
-

> <NUMBER_OF_PUBMED_ARTICLES>
-

> <PUBCHEM_DATA_SOURCES>
32

> <CPDAT_COUNT>
-

> <ATMOSPHERIC_HYDROXYLATION_RATE_(AOH)_CM3/MOLECULE*SEC_OPERA_PRED>
2.11714e-11

> <BIOCONCENTRATION_FACTOR_OPERA_PRED>
12.4302

> <BIODEGRADATION_HALF_LIFE_DAYS_DAYS_OPERA_PRED>
2.7739

> <BOILING_POINT_DEGC_OPERA_PRED>
282.296

> <HENRYS_LAW_ATM-M3/MOLE_OPERA_PRED>
2.85131e-07

> <OPERA_KM_DAYS_OPERA_PRED>
0.491257

> <OCTANOL_AIR_PARTITION_COEFF_LOGKOA_OPERA_PRED>
8.36352

> <SOIL_ADSORPTION_COEFFICIENT_KOC_L/KG_OPERA_PRED>
123.323

> <OCTANOL_WATER_PARTITION_LOGP_OPERA_PRED>
0.901946

> <MELTING_POINT_DEGC_OPERA_PRED>
62.5119

> <VAPOR_PRESSURE_MMHG_OPERA_PRED>
0.0118166

> <WATER_SOLUBILITY_MOL/L_OPERA_PRED>
0.476805

> <TEST_BCF_TEST_PRED>
7.99834

> <BOILING_POINT_DEGC_TEST_PRED>
266.68

> <DENSITY_G/CM^3_TEST_PRED>
1.034

> <FLASH_POINT_DEGC_TEST_PRED>
110.471

> <MELTING_POINT_DEGC_TEST_PRED>
21.513

> <SURFACE_TENSION_DYN/CM_TEST_PRED>
38.315

> <THERMAL_CONDUCTIVITY_MW/(M*K)_TEST_PRED>
148.191

> <VISCOSITY_CP_CP_TEST_PRED>
12.2744

> <VAPOR_PRESSURE_MMHG_TEST_PRED>
0.00881049

> <WATER_SOLUBILITY_MOL/L_TEST_PRED>
0.0648634

> <AEGLVALUES>
0

> <ALGALTOX>
0

> <ARCHEMICALS>
0

> <ATSDRLST>
0

> <BISPHENOLS>
0

> <OEHHA>
0

> <CERAPP>
0

> <FUNNAMES>
0

> <KWRSJERPS>
0

> <EPACONS>
0

> <IRIS>
0

> <EPAHFR>
0

> <EUCOSMETICS>
0

> <FRENCHLIST>
0

> <HEROMAP>
0

> <ITNANTIBIOTIC>
0

> <KEMIMARKET>
0

> <MASSBANKREF>
0

> <MASSBANKEUSP>
0

> <NEMILIST>
0

> <NATADB>
0

> <NIOSHIDLH>
0

> <NIOSHICSC>
0

> <NIOSHNPG>
0

> <NIOSHSKIN>
0

> <NORMANCT15>
0

> <SFISHFLUORO>
0

> <NORMANPRI>
0

> <NORMANEWS>
0

> <PFASTRIER>
0

> <SWISSPHARMA>
0

> <PPRTVWEB>
0

> <STOCKHOLM>
0

> <STOFFIDENT>
0

> <SCDM>
0

> <EAWAGSURF>
0

> <SWISSPEST>
0

> <TOX21SL>
0

> <TOXCAST>
0

> <TOXCAST_E1K>
0

> <TOXCAST_PH1V2>
0

> <TOXCAST_PH2>
0

> <TOXCAST_PH3>
0

> <TOXCAST_PHASEI>
0

> <TOXCAST_PHASEII>
0

> <TOXCAST_PHASEIII>
0

> <TRIRELEASE>
0

> <TSCASURF>
0

> <UJIBADE>
0

> <ATHENSSUS>
0

> <UATHTARGETS>
0

$$$$
539033
  Mrv1611109301618462D          

  0  0  0     0  0            999 V3000
M  V30 BEGIN CTAB
M  V30 COUNTS 12 13 0 0 0
M  V30 BEGIN ATOM
M  V30 1 N 1.2196 -3.6113 0 0
M  V30 2 C -0.1141 -2.8413 0 0
M  V30 3 C -1.4478 -3.6113 0 0
M  V30 4 C -0.1141 -1.3013 0 0
M  V30 5 C -1.4478 -0.5313 0 0
M  V30 6 N -1.4478 1.0087 0 0
M  V30 7 C -0.1141 1.7787 0 0
M  V30 8 C 1.2196 1.0087 0 0
M  V30 9 C 1.2196 -0.5313 0 0
M  V30 10 C 1.2196 -5.1512 0 0
M  V30 11 C 1.9896 -6.4849 0 0
M  V30 12 C 0.4496 -6.4849 0 0
M  V30 END ATOM
M  V30 BEGIN BOND
M  V30 1 1 1 2
M  V30 2 1 2 3
M  V30 3 1 2 4
M  V30 4 2 4 5
M  V30 5 1 5 6
M  V30 6 2 6 7
M  V30 7 1 7 8
M  V30 8 2 8 9
M  V30 9 1 9 4
M  V30 10 1 1 10
M  V30 11 1 10 11
M  V30 12 1 11 12
M  V30 13 1 12 10
M  V30 END BOND
M  V30 END CTAB
M  END

> <INPUT>
C10H14N2

> <FOUND_BY>
MS Ready Formula

> <DTXCID_INDIVIDUAL_COMPONENT>
DTXCID20950699

> <FORMULA_INDIVIDUAL_COMPONENT>
C10H14N2

> <SMILES_INDIVIDUAL_COMPONENT>
CC(NC1CC1)C1=CN=CC=C1

> <MAPPED_DTXSID>
DTXSID70588269

> <PREFERRED_NAME_DTXSID>
N-[1-(Pyridin-3-yl)ethyl]cyclopropanamine

> <CASRN_DTXSID>
183609-12-3

> <FORMULA_MAPPED_DTXSID>
C10H14N2

> <SMILES_MAPPED_DTXSID>
CC(NC1CC1)C1=CN=CC=C1

> <MS_READY_SMILES>
CC(NC1CC1)C1=CN=CC=C1

> <INCHI_STRING_DTXCID>
InChI=1S/C10H14N2/c1-8(12-10-4-5-10)9-3-2-6-11-7-9/h2-3,6-8,10,12H,4-5H2,1H3

> <INCHIKEY_DTXCID>
XJCXOPUZWYXCES-UHFFFAOYSA-N

> <MONOISOTOPIC_MASS_DTXCID>
162.115698459

> <EXPOCAST_MEDIAN_EXPOSURE_PREDICTION_MG/KG-BW/DAY>
-

> <EXPOCAST>
0

> <NHANES>
0

> <DATA_SOURCES>
2

> <TOXVAL_DATA>
0

> <TOXCAST_PERCENT_ACTIVE>
-

> <TOXCAST_NUMBER_OF_ASSAYS/TOTAL>
-

> <NUMBER_OF_PUBMED_ARTICLES>
-

> <PUBCHEM_DATA_SOURCES>
24

> <CPDAT_COUNT>
-

> <ATMOSPHERIC_HYDROXYLATION_RATE_(AOH)_CM3/MOLECULE*SEC_OPERA_PRED>
5.21647e-11

> <BIOCONCENTRATION_FACTOR_OPERA_PRED>
12.1388

> <BIODEGRADATION_HALF_LIFE_DAYS_DAYS_OPERA_PRED>
2.99985

> <BOILING_POINT_DEGC_OPERA_PRED>
282.613

> <HENRYS_LAW_ATM-M3/MOLE_OPERA_PRED>
2.78663e-07

> <OPERA_KM_DAYS_OPERA_PRED>
0.54713

> <OCTANOL_AIR_PARTITION_COEFF_LOGKOA_OPERA_PRED>
7.73009

> <SOIL_ADSORPTION_COEFFICIENT_KOC_L/KG_OPERA_PRED>
108.637

> <OCTANOL_WATER_PARTITION_LOGP_OPERA_PRED>
0.819549

> <MELTING_POINT_DEGC_OPERA_PRED>
85.2036

> <VAPOR_PRESSURE_MMHG_OPERA_PRED>
0.0158032

> <WATER_SOLUBILITY_MOL/L_OPERA_PRED>
2.52226

> <TEST_BCF_TEST_PRED>
20.2302

> <BOILING_POINT_DEGC_TEST_PRED>
252.631

> <DENSITY_G/CM^3_TEST_PRED>
1.094

> <FLASH_POINT_DEGC_TEST_PRED>
106.419

> <MELTING_POINT_DEGC_TEST_PRED>
59.258

> <SURFACE_TENSION_DYN/CM_TEST_PRED>
33.951

> <THERMAL_CONDUCTIVITY_MW/(M*K)_TEST_PRED>
143.754

> <VISCOSITY_CP_CP_TEST_PRED>
12.0504

> <VAPOR_PRESSURE_MMHG_TEST_PRED>
7.94328e-05

> <WATER_SOLUBILITY_MOL/L_TEST_PRED>
0.00688652

> <AEGLVALUES>
0

> <ALGALTOX>
0

> <ARCHEMICALS>
0

> <ATSDRLST>
0

> <BISPHENOLS>
0

> <OEHHA>
0

> <CERAPP>
0

> <FUNNAMES>
0

> <KWRSJERPS>
0

> <EPACONS>
0

> <IRIS>
0

> <EPAHFR>
0

> <EUCOSMETICS>
0

> <FRENCHLIST>
0

> <HEROMAP>
0

> <ITNANTIBIOTIC>
0

> <KEMIMARKET>
0

> <MASSBANKREF>
0

> <MASSBANKEUSP>
0

> <NEMILIST>
0

> <NATADB>
0

> <NIOSHIDLH>
0

> <NIOSHICSC>
0

> <NIOSHNPG>
0

> <NIOSHSKIN>
0

> <NORMANCT15>
0

> <SFISHFLUORO>
0

> <NORMANPRI>
0

> <NORMANEWS>
0

> <PFASTRIER>
0

> <SWISSPHARMA>
0

> <PPRTVWEB>
0

> <STOCKHOLM>
0

> <STOFFIDENT>
0

> <SCDM>
0

> <EAWAGSURF>
0

> <SWISSPEST>
0

> <TOX21SL>
0

> <TOXCAST>
0

> <TOXCAST_E1K>
0

> <TOXCAST_PH1V2>
0

> <TOXCAST_PH2>
0

> <TOXCAST_PH3>
0

> <TOXCAST_PHASEI>
0

> <TOXCAST_PHASEII>
0

> <TOXCAST_PHASEIII>
0

> <TRIRELEASE>
0

> <TSCASURF>
0

> <UJIBADE>
0

> <ATHENSSUS>
0

> <UATHTARGETS>
0

$$$$

  Mrv1533009301519522D          

  0  0  0     0  0            999 V3000
M  V30 BEGIN CTAB
M  V30 COUNTS 12 13 0 0 0
M  V30 BEGIN ATOM
M  V30 1 N 5.7475 0.8361 0 0
M  V30 2 N 5.7475 -3.7841 0 0
M  V30 3 C 5.7475 2.3761 0 0
M  V30 4 C 4.6585 3.4651 0 0
M  V30 5 C 6.8365 3.4651 0 0
M  V30 6 C 5.7475 4.5541 0 0
M  V30 7 C 4.4137 0.0661 0 0
M  V30 8 C 4.4137 -1.4739 0 0
M  V30 9 C 3.08 -2.2439 0 0
M  V30 10 C 5.7475 -2.2439 0 0
M  V30 11 C 3.08 -3.7841 0 0
M  V30 12 C 4.4137 -4.5541 0 0
M  V30 END ATOM
M  V30 BEGIN BOND
M  V30 1 1 1 3
M  V30 2 1 1 7
M  V30 3 1 2 10
M  V30 4 2 2 12
M  V30 5 1 3 4
M  V30 6 1 3 5
M  V30 7 1 4 6
M  V30 8 1 5 6
M  V30 9 1 7 8
M  V30 10 1 8 9
M  V30 11 2 8 10
M  V30 12 2 9 11
M  V30 13 1 11 12
M  V30 END BOND
M  V30 END CTAB
M  END

> <INPUT>
C10H14N2

> <FOUND_BY>
MS Ready Formula

> <DTXCID_INDIVIDUAL_COMPONENT>
DTXCID10540861

> <FORMULA_INDIVIDUAL_COMPONENT>
C10H14N2

> <SMILES_INDIVIDUAL_COMPONENT>
C(NC1CCC1)C1=CN=CC=C1

> <MAPPED_DTXSID>
DTXSID00590097

> <PREFERRED_NAME_DTXSID>
N-[(Pyridin-3-yl)methyl]cyclobutanamine

> <CASRN_DTXSID>
185509-76-6

> <FORMULA_MAPPED_DTXSID>
C10H14N2

> <SMILES_MAPPED_DTXSID>
C(NC1CCC1)C1=CN=CC=C1

> <MS_READY_SMILES>
C(NC1CCC1)C1=CN=CC=C1

> <INCHI_STRING_DTXCID>
InChI=1S/C10H14N2/c1-4-10(5-1)12-8-9-3-2-6-11-7-9/h2-3,6-7,10,12H,1,4-5,8H2

> <INCHIKEY_DTXCID>
UFFMGQWREGJEFM-UHFFFAOYSA-N

> <MONOISOTOPIC_MASS_DTXCID>
162.115698459

> <EXPOCAST_MEDIAN_EXPOSURE_PREDICTION_MG/KG-BW/DAY>
-

> <EXPOCAST>
0

> <NHANES>
0

> <DATA_SOURCES>
2

> <TOXVAL_DATA>
0

> <TOXCAST_PERCENT_ACTIVE>
-

> <TOXCAST_NUMBER_OF_ASSAYS/TOTAL>
-

> <NUMBER_OF_PUBMED_ARTICLES>
-

> <PUBCHEM_DATA_SOURCES>
16

> <CPDAT_COUNT>
-

> <ATMOSPHERIC_HYDROXYLATION_RATE_(AOH)_CM3/MOLECULE*SEC_OPERA_PRED>
4.37143e-11

> <BIOCONCENTRATION_FACTOR_OPERA_PRED>
8.87059

> <BIODEGRADATION_HALF_LIFE_DAYS_DAYS_OPERA_PRED>
3.17234

> <BOILING_POINT_DEGC_OPERA_PRED>
280.017

> <HENRYS_LAW_ATM-M3/MOLE_OPERA_PRED>
2.7568e-07

> <OPERA_KM_DAYS_OPERA_PRED>
0.48153

> <OCTANOL_AIR_PARTITION_COEFF_LOGKOA_OPERA_PRED>
8.36352

> <SOIL_ADSORPTION_COEFFICIENT_KOC_L/KG_OPERA_PRED>
158.496

> <OCTANOL_WATER_PARTITION_LOGP_OPERA_PRED>
0.762679

> <MELTING_POINT_DEGC_OPERA_PRED>
86.1147

> <VAPOR_PRESSURE_MMHG_OPERA_PRED>
0.015485

> <WATER_SOLUBILITY_MOL/L_OPERA_PRED>
2.52983

> <TEST_BCF_TEST_PRED>
10.4472

> <BOILING_POINT_DEGC_TEST_PRED>
247.292

> <DENSITY_G/CM^3_TEST_PRED>
1.054

> <FLASH_POINT_DEGC_TEST_PRED>
103.153

> <MELTING_POINT_DEGC_TEST_PRED>
65.085

> <SURFACE_TENSION_DYN/CM_TEST_PRED>
34.785

> <THERMAL_CONDUCTIVITY_MW/(M*K)_TEST_PRED>
-

> <VISCOSITY_CP_CP_TEST_PRED>
9.48418

> <VAPOR_PRESSURE_MMHG_TEST_PRED>
0.0252348

> <WATER_SOLUBILITY_MOL/L_TEST_PRED>
0.0202302

> <AEGLVALUES>
0

> <ALGALTOX>
0

> <ARCHEMICALS>
0

> <ATSDRLST>
0

> <BISPHENOLS>
0

> <OEHHA>
0

> <CERAPP>
0

> <FUNNAMES>
0

> <KWRSJERPS>
0

> <EPACONS>
0

> <IRIS>
0

> <EPAHFR>
0

> <EUCOSMETICS>
0

> <FRENCHLIST>
0

> <HEROMAP>
0

> <ITNANTIBIOTIC>
0

> <KEMIMARKET>
0

> <MASSBANKREF>
0

> <MASSBANKEUSP>
0

> <NEMILIST>
0

> <NATADB>
0

> <NIOSHIDLH>
0

> <NIOSHICSC>
0

> <NIOSHNPG>
0

> <NIOSHSKIN>
0

> <NORMANCT15>
0

> <SFISHFLUORO>
0

> <NORMANPRI>
0

> <NORMANEWS>
0

> <PFASTRIER>
0

> <SWISSPHARMA>
0

> <PPRTVWEB>
0

> <STOCKHOLM>
0

> <STOFFIDENT>
0

> <SCDM>
0

> <EAWAGSURF>
0

> <SWISSPEST>
0

> <TOX21SL>
0

> <TOXCAST>
0

> <TOXCAST_E1K>
0

> <TOXCAST_PH1V2>
0

> <TOXCAST_PH2>
0

> <TOXCAST_PH3>
0

> <TOXCAST_PHASEI>
0

> <TOXCAST_PHASEII>
0

> <TOXCAST_PHASEIII>
0

> <TRIRELEASE>
0

> <TSCASURF>
0

> <UJIBADE>
0

> <ATHENSSUS>
0

> <UATHTARGETS>
0

$$$$

  Mrv1533009301519582D          

  0  0  0     0  0            999 V3000
M  V30 BEGIN CTAB
M  V30 COUNTS 12 13 0 0 0
M  V30 BEGIN ATOM
M  V30 1 N 3.7483 -1.6511 0 0
M  V30 2 N 5.2496 1.4666 0 0
M  V30 3 C 6.4534 -1.0336 0 0
M  V30 4 C 5.2496 -1.9936 0 0
M  V30 5 C 6.4534 0.5064 0 0
M  V30 6 C 3.08 -0.2636 0 0
M  V30 7 C 3.7483 1.1239 0 0
M  V30 8 C 7.8303 -1.857 0 0
M  V30 9 C 7.8303 1.3298 0 0
M  V30 10 C 9.2254 -1.0655 0 0
M  V30 11 C 9.2254 0.5385 0 0
M  V30 12 C 10.5562 -1.8407 0 0
M  V30 END ATOM
M  V30 BEGIN BOND
M  V30 1 1 1 4
M  V30 2 1 1 6
M  V30 3 1 2 5
M  V30 4 1 2 7
M  V30 5 1 3 4
M  V30 6 2 3 5
M  V30 7 1 3 8
M  V30 8 1 5 9
M  V30 9 1 6 7
M  V30 10 2 8 10
M  V30 11 2 9 11
M  V30 12 1 10 11
M  V30 13 1 10 12
M  V30 END BOND
M  V30 END CTAB
M  END

> <INPUT>
C10H14N2

> <FOUND_BY>
MS Ready Formula

> <DTXCID_INDIVIDUAL_COMPONENT>
DTXCID00560194

> <FORMULA_INDIVIDUAL_COMPONENT>
C10H14N2

> <SMILES_INDIVIDUAL_COMPONENT>
CC1=CC2=C(NCCNC2)C=C1

> <MAPPED_DTXSID>
DTXSID60609437

> <PREFERRED_NAME_DTXSID>
7-Methyl-2,3,4,5-tetrahydro-1H-1,4-benzodiazepine

> <CASRN_DTXSID>
422318-36-3

> <FORMULA_MAPPED_DTXSID>
C10H14N2

> <SMILES_MAPPED_DTXSID>
CC1=CC2=C(NCCNC2)C=C1

> <MS_READY_SMILES>
CC1=CC2=C(NCCNC2)C=C1

> <INCHI_STRING_DTXCID>
InChI=1S/C10H14N2/c1-8-2-3-10-9(6-8)7-11-4-5-12-10/h2-3,6,11-12H,4-5,7H2,1H3

> <INCHIKEY_DTXCID>
NJFPGSCEQVZTIQ-UHFFFAOYSA-N

> <MONOISOTOPIC_MASS_DTXCID>
162.115698459

> <EXPOCAST_MEDIAN_EXPOSURE_PREDICTION_MG/KG-BW/DAY>
-

> <EXPOCAST>
0

> <NHANES>
0

> <DATA_SOURCES>
2

> <TOXVAL_DATA>
0

> <TOXCAST_PERCENT_ACTIVE>
-

> <TOXCAST_NUMBER_OF_ASSAYS/TOTAL>
-

> <NUMBER_OF_PUBMED_ARTICLES>
-

> <PUBCHEM_DATA_SOURCES>
41

> <CPDAT_COUNT>
-

> <ATMOSPHERIC_HYDROXYLATION_RATE_(AOH)_CM3/MOLECULE*SEC_OPERA_PRED>
2.17038e-11

> <BIOCONCENTRATION_FACTOR_OPERA_PRED>
7.44373

> <BIODEGRADATION_HALF_LIFE_DAYS_DAYS_OPERA_PRED>
2.56968

> <BOILING_POINT_DEGC_OPERA_PRED>
266.663

> <HENRYS_LAW_ATM-M3/MOLE_OPERA_PRED>
3.56039e-08

> <OPERA_KM_DAYS_OPERA_PRED>
0.163021

> <OCTANOL_AIR_PARTITION_COEFF_LOGKOA_OPERA_PRED>
7.95044

> <SOIL_ADSORPTION_COEFFICIENT_KOC_L/KG_OPERA_PRED>
125.248

> <OCTANOL_WATER_PARTITION_LOGP_OPERA_PRED>
0.767643

> <MELTING_POINT_DEGC_OPERA_PRED>
93.4055

> <VAPOR_PRESSURE_MMHG_OPERA_PRED>
0.000350166

> <WATER_SOLUBILITY_MOL/L_OPERA_PRED>
0.236162

> <TEST_BCF_TEST_PRED>
6.98232

> <BOILING_POINT_DEGC_TEST_PRED>
293.221

> <DENSITY_G/CM^3_TEST_PRED>
1.029

> <FLASH_POINT_DEGC_TEST_PRED>
115.756

> <MELTING_POINT_DEGC_TEST_PRED>
81.807

> <SURFACE_TENSION_DYN/CM_TEST_PRED>
-

> <THERMAL_CONDUCTIVITY_MW/(M*K)_TEST_PRED>
166.312

> <VISCOSITY_CP_CP_TEST_PRED>
14.0281

> <VAPOR_PRESSURE_MMHG_TEST_PRED>
5.80764e-05

> <WATER_SOLUBILITY_MOL/L_TEST_PRED>
0.018239

> <AEGLVALUES>
0

> <ALGALTOX>
0

> <ARCHEMICALS>
0

> <ATSDRLST>
0

> <BISPHENOLS>
0

> <OEHHA>
0

> <CERAPP>
0

> <FUNNAMES>
0

> <KWRSJERPS>
0

> <EPACONS>
0

> <IRIS>
0

> <EPAHFR>
0

> <EUCOSMETICS>
0

> <FRENCHLIST>
0

> <HEROMAP>
0

> <ITNANTIBIOTIC>
0

> <KEMIMARKET>
0

> <MASSBANKREF>
0

> <MASSBANKEUSP>
0

> <NEMILIST>
0

> <NATADB>
0

> <NIOSHIDLH>
0

> <NIOSHICSC>
0

> <NIOSHNPG>
0

> <NIOSHSKIN>
0

> <NORMANCT15>
0

> <SFISHFLUORO>
0

> <NORMANPRI>
0

> <NORMANEWS>
0

> <PFASTRIER>
0

> <SWISSPHARMA>
0

> <PPRTVWEB>
0

> <STOCKHOLM>
0

> <STOFFIDENT>
0

> <SCDM>
0

> <EAWAGSURF>
0

> <SWISSPEST>
0

> <TOX21SL>
0

> <TOXCAST>
0

> <TOXCAST_E1K>
0

> <TOXCAST_PH1V2>
0

> <TOXCAST_PH2>
0

> <TOXCAST_PH3>
0

> <TOXCAST_PHASEI>
0

> <TOXCAST_PHASEII>
0

> <TOXCAST_PHASEIII>
0

> <TRIRELEASE>
0

> <TSCASURF>
0

> <UJIBADE>
0

> <ATHENSSUS>
0

> <UATHTARGETS>
0

$$$$

  Mrv1533009301520062D          

  0  0  0     0  0            999 V3000
M  V30 BEGIN CTAB
M  V30 COUNTS 12 13 0 0 0
M  V30 BEGIN ATOM
M  V30 1 N 9.3653 -1.3444 0 0
M  V30 2 N 3.9069 -1.6451 0 0
M  V30 3 C 9.3653 1.1344 0 0
M  V30 4 C 10.2641 -0.1051 0 0
M  V30 5 C 7.9081 0.6649 0 0
M  V30 6 C 7.9081 -0.8751 0 0
M  V30 7 C 10.6127 2.0375 0 0
M  V30 8 C 8.8921 2.5999 0 0
M  V30 9 C 6.5744 1.4351 0 0
M  V30 10 C 6.5744 -1.6451 0 0
M  V30 11 C 5.2407 0.6649 0 0
M  V30 12 C 5.2407 -0.8751 0 0
M  V30 END ATOM
M  V30 BEGIN BOND
M  V30 1 1 1 4
M  V30 2 1 1 6
M  V30 3 1 2 12
M  V30 4 1 3 4
M  V30 5 1 3 5
M  V30 6 1 3 7
M  V30 7 1 3 8
M  V30 8 2 5 6
M  V30 9 1 5 9
M  V30 10 1 6 10
M  V30 11 2 9 11
M  V30 12 2 10 12
M  V30 13 1 11 12
M  V30 END BOND
M  V30 END CTAB
M  END

> <INPUT>
C10H14N2

> <FOUND_BY>
MS Ready Formula

> <DTXCID_INDIVIDUAL_COMPONENT>
DTXCID50584769

> <FORMULA_INDIVIDUAL_COMPONENT>
C10H14N2

> <SMILES_INDIVIDUAL_COMPONENT>
CC1(C)CNC2=C1C=CC(N)=C2

> <MAPPED_DTXSID>
DTXSID10634017

> <PREFERRED_NAME_DTXSID>
3,3-Dimethyl-2,3-dihydro-1H-indol-6-amine

> <CASRN_DTXSID>
179898-73-8

> <FORMULA_MAPPED_DTXSID>
C10H14N2

> <SMILES_MAPPED_DTXSID>
CC1(C)CNC2=C1C=CC(N)=C2

> <MS_READY_SMILES>
CC1(C)CNC2=C1C=CC(N)=C2

> <INCHI_STRING_DTXCID>
InChI=1S/C10H14N2/c1-10(2)6-12-9-5-7(11)3-4-8(9)10/h3-5,12H,6,11H2,1-2H3

> <INCHIKEY_DTXCID>
OVSRQUPJJIAWID-UHFFFAOYSA-N

> <MONOISOTOPIC_MASS_DTXCID>
162.115698459

> <EXPOCAST_MEDIAN_EXPOSURE_PREDICTION_MG/KG-BW/DAY>
-

> <EXPOCAST>
0

> <NHANES>
0

> <DATA_SOURCES>
2

> <TOXVAL_DATA>
0

> <TOXCAST_PERCENT_ACTIVE>
-

> <TOXCAST_NUMBER_OF_ASSAYS/TOTAL>
-

> <NUMBER_OF_PUBMED_ARTICLES>
-

> <PUBCHEM_DATA_SOURCES>
40

> <CPDAT_COUNT>
-

> <ATMOSPHERIC_HYDROXYLATION_RATE_(AOH)_CM3/MOLECULE*SEC_OPERA_PRED>
2.73568e-11

> <BIOCONCENTRATION_FACTOR_OPERA_PRED>
12.7295

> <BIODEGRADATION_HALF_LIFE_DAYS_DAYS_OPERA_PRED>
3.8666

> <BOILING_POINT_DEGC_OPERA_PRED>
262.655

> <HENRYS_LAW_ATM-M3/MOLE_OPERA_PRED>
6.8153e-08

> <OPERA_KM_DAYS_OPERA_PRED>
0.129282

> <OCTANOL_AIR_PARTITION_COEFF_LOGKOA_OPERA_PRED>
7.95414

> <SOIL_ADSORPTION_COEFFICIENT_KOC_L/KG_OPERA_PRED>
266.804

> <OCTANOL_WATER_PARTITION_LOGP_OPERA_PRED>
1.97922

> <MELTING_POINT_DEGC_OPERA_PRED>
99.8117

> <VAPOR_PRESSURE_MMHG_OPERA_PRED>
7.17498e-05

> <WATER_SOLUBILITY_MOL/L_OPERA_PRED>
0.112273

> <TEST_BCF_TEST_PRED>
15.1705

> <BOILING_POINT_DEGC_TEST_PRED>
287.536

> <DENSITY_G/CM^3_TEST_PRED>
1.084

> <FLASH_POINT_DEGC_TEST_PRED>
137.999

> <MELTING_POINT_DEGC_TEST_PRED>
125.311

> <SURFACE_TENSION_DYN/CM_TEST_PRED>
-

> <THERMAL_CONDUCTIVITY_MW/(M*K)_TEST_PRED>
167.055

> <VISCOSITY_CP_CP_TEST_PRED>
3.78443

> <VAPOR_PRESSURE_MMHG_TEST_PRED>
0.000101391

> <WATER_SOLUBILITY_MOL/L_TEST_PRED>
0.00505825

> <AEGLVALUES>
0

> <ALGALTOX>
0

> <ARCHEMICALS>
0

> <ATSDRLST>
0

> <BISPHENOLS>
0

> <OEHHA>
0

> <CERAPP>
0

> <FUNNAMES>
0

> <KWRSJERPS>
0

> <EPACONS>
0

> <IRIS>
0

> <EPAHFR>
0

> <EUCOSMETICS>
0

> <FRENCHLIST>
0

> <HEROMAP>
0

> <ITNANTIBIOTIC>
0

> <KEMIMARKET>
0

> <MASSBANKREF>
0

> <MASSBANKEUSP>
0

> <NEMILIST>
0

> <NATADB>
0

> <NIOSHIDLH>
0

> <NIOSHICSC>
0

> <NIOSHNPG>
0

> <NIOSHSKIN>
0

> <NORMANCT15>
0

> <SFISHFLUORO>
0

> <NORMANPRI>
0

> <NORMANEWS>
0

> <PFASTRIER>
0

> <SWISSPHARMA>
0

> <PPRTVWEB>
0

> <STOCKHOLM>
0

> <STOFFIDENT>
0

> <SCDM>
0

> <EAWAGSURF>
0

> <SWISSPEST>
0

> <TOX21SL>
0

> <TOXCAST>
0

> <TOXCAST_E1K>
0

> <TOXCAST_PH1V2>
0

> <TOXCAST_PH2>
0

> <TOXCAST_PH3>
0

> <TOXCAST_PHASEI>
0

> <TOXCAST_PHASEII>
0

> <TOXCAST_PHASEIII>
0

> <TRIRELEASE>
0

> <TSCASURF>
0

> <UJIBADE>
0

> <ATHENSSUS>
0

> <UATHTARGETS>
0

$$$$

  Mrv1611108211713492D          

  0  0  0     0  0            999 V3000
M  V30 BEGIN CTAB
M  V30 COUNTS 12 13 0 0 0
M  V30 BEGIN ATOM
M  V30 1 N 5.3343 -2.0521 0 0
M  V30 2 C 4.0583 -2.9401 0 0
M  V30 3 C 2.6507 -2.3152 0 0
M  V30 4 N 1.3352 0 0 0
M  V30 5 C 2.6507 -0.7762 0 0
M  V30 6 C 6.5774 -2.927 0 0
M  V30 7 C 5.3343 -0.4801 0 0
M  V30 8 C 4.5581 -4.4069 0 0
M  V30 9 C 6.1301 -4.4069 0 0
M  V30 10 C 1.3352 -3.0717 0 0
M  V30 11 C 0 -0.7565 0 0
M  V30 12 C 0 -2.3152 0 0
M  V30 END ATOM
M  V30 BEGIN BOND
M  V30 1 1 1 2
M  V30 2 1 1 6
M  V30 3 1 1 7
M  V30 4 1 2 3
M  V30 5 1 2 8
M  V30 6 2 3 5
M  V30 7 1 3 10
M  V30 8 1 4 5
M  V30 9 2 4 11
M  V30 10 1 6 9
M  V30 11 1 8 9
M  V30 12 2 10 12
M  V30 13 1 11 12
M  V30 END BOND
M  V30 END CTAB
M  END

> <INPUT>
C10H14N2

> <FOUND_BY>
MS Ready Formula

> <DTXCID_INDIVIDUAL_COMPONENT>
DTXCID9028128

> <FORMULA_INDIVIDUAL_COMPONENT>
C10H14N2

> <SMILES_INDIVIDUAL_COMPONENT>
CN1CCCC1C1=CN=CC=C1

> <MAPPED_DTXSID>
DTXSID00657553

> <PREFERRED_NAME_DTXSID>
2,3-Bis[(4-methylbenzoyl)oxy]butanedioic acid--3-(1-methylpyrrolidin-2-yl)pyridine (1/1)

> <CASRN_DTXSID>
68935-27-3

> <FORMULA_MAPPED_DTXSID>
C30H32N2O8

> <SMILES_MAPPED_DTXSID>
CN1CCCC1C1=CN=CC=C1.CC1=CC=C(C=C1)C(=O)OC(C(OC(=O)C1=CC=C(C)C=C1)C(O)=O)C(O)=O

> <MS_READY_SMILES>
Cc1ccc(cc1)C(=O)OC(C(OC(=O)c1ccc(C)cc1)C(O)=O)C(O)=O,CN1CCCC1C1=CN=CC=C1

> <INCHI_STRING_DTXCID>
InChI=1S/C10H14N2/c1-12-7-3-5-10(12)9-4-2-6-11-8-9/h2,4,6,8,10H,3,5,7H2,1H3

> <INCHIKEY_DTXCID>
SNICXCGAKADSCV-UHFFFAOYSA-N

> <MONOISOTOPIC_MASS_DTXCID>
162.115698459

> <EXPOCAST_MEDIAN_EXPOSURE_PREDICTION_MG/KG-BW/DAY>
-

> <EXPOCAST>
0

> <NHANES>
0

> <DATA_SOURCES>
2

> <TOXVAL_DATA>
0

> <TOXCAST_PERCENT_ACTIVE>
-

> <TOXCAST_NUMBER_OF_ASSAYS/TOTAL>
-

> <NUMBER_OF_PUBMED_ARTICLES>
-

> <PUBCHEM_DATA_SOURCES>
11

> <CPDAT_COUNT>
-

> <ATMOSPHERIC_HYDROXYLATION_RATE_(AOH)_CM3/MOLECULE*SEC_OPERA_PRED>
-

> <BIOCONCENTRATION_FACTOR_OPERA_PRED>
-

> <BIODEGRADATION_HALF_LIFE_DAYS_DAYS_OPERA_PRED>
-

> <BOILING_POINT_DEGC_OPERA_PRED>
-

> <HENRYS_LAW_ATM-M3/MOLE_OPERA_PRED>
-

> <OPERA_KM_DAYS_OPERA_PRED>
-

> <OCTANOL_AIR_PARTITION_COEFF_LOGKOA_OPERA_PRED>
-

> <SOIL_ADSORPTION_COEFFICIENT_KOC_L/KG_OPERA_PRED>
-

> <OCTANOL_WATER_PARTITION_LOGP_OPERA_PRED>
-

> <MELTING_POINT_DEGC_OPERA_PRED>
-

> <VAPOR_PRESSURE_MMHG_OPERA_PRED>
-

> <WATER_SOLUBILITY_MOL/L_OPERA_PRED>
-

> <TEST_BCF_TEST_PRED>
-

> <BOILING_POINT_DEGC_TEST_PRED>
-

> <DENSITY_G/CM^3_TEST_PRED>
-

> <FLASH_POINT_DEGC_TEST_PRED>
-

> <MELTING_POINT_DEGC_TEST_PRED>
-

> <SURFACE_TENSION_DYN/CM_TEST_PRED>
-

> <THERMAL_CONDUCTIVITY_MW/(M*K)_TEST_PRED>
-

> <VISCOSITY_CP_CP_TEST_PRED>
-

> <VAPOR_PRESSURE_MMHG_TEST_PRED>
-

> <WATER_SOLUBILITY_MOL/L_TEST_PRED>
-

> <AEGLVALUES>
0

> <ALGALTOX>
0

> <ARCHEMICALS>
0

> <ATSDRLST>
0

> <BISPHENOLS>
0

> <OEHHA>
0

> <CERAPP>
0

> <FUNNAMES>
0

> <KWRSJERPS>
0

> <EPACONS>
0

> <IRIS>
0

> <EPAHFR>
0

> <EUCOSMETICS>
0

> <FRENCHLIST>
0

> <HEROMAP>
0

> <ITNANTIBIOTIC>
0

> <KEMIMARKET>
0

> <MASSBANKREF>
0

> <MASSBANKEUSP>
0

> <NEMILIST>
0

> <NATADB>
0

> <NIOSHIDLH>
0

> <NIOSHICSC>
0

> <NIOSHNPG>
0

> <NIOSHSKIN>
0

> <NORMANCT15>
0

> <SFISHFLUORO>
0

> <NORMANPRI>
0

> <NORMANEWS>
0

> <PFASTRIER>
0

> <SWISSPHARMA>
0

> <PPRTVWEB>
0

> <STOCKHOLM>
0

> <STOFFIDENT>
0

> <SCDM>
0

> <EAWAGSURF>
0

> <SWISSPEST>
0

> <TOX21SL>
0

> <TOXCAST>
0

> <TOXCAST_E1K>
0

> <TOXCAST_PH1V2>
0

> <TOXCAST_PH2>
0

> <TOXCAST_PH3>
0

> <TOXCAST_PHASEI>
0

> <TOXCAST_PHASEII>
0

> <TOXCAST_PHASEIII>
0

> <TRIRELEASE>
0

> <TSCASURF>
0

> <UJIBADE>
0

> <ATHENSSUS>
0

> <UATHTARGETS>
0

$$$$

  Mrv1533009301520142D          

  0  0  0     0  0            999 V3000
M  V30 BEGIN CTAB
M  V30 COUNTS 12 12 0 0 0
M  V30 BEGIN ATOM
M  V30 1 N 8.4149 -1.0627 0 0
M  V30 2 N 11.0824 -1.0627 0 0
M  V30 3 C 7.0812 -0.2927 0 0
M  V30 4 C 5.7475 -1.0627 0 0
M  V30 5 C 4.4137 -0.2927 0 0
M  V30 6 C 9.7485 -0.2927 0 0
M  V30 7 C 3.08 -1.0627 0 0
M  V30 8 C 4.4137 1.2475 0 0
M  V30 9 C 9.7485 1.2475 0 0
M  V30 10 C 11.0824 2.0175 0 0
M  V30 11 C 12.4161 1.2475 0 0
M  V30 12 C 12.4161 -0.2927 0 0
M  V30 END ATOM
M  V30 BEGIN BOND
M  V30 1 1 1 3
M  V30 2 1 1 6
M  V30 3 1 2 6
M  V30 4 2 2 12
M  V30 5 1 3 4
M  V30 6 2 4 5
M  V30 7 1 5 7
M  V30 8 1 5 8
M  V30 9 2 6 9
M  V30 10 1 9 10
M  V30 11 2 10 11
M  V30 12 1 11 12
M  V30 END BOND
M  V30 END CTAB
M  END

> <INPUT>
C10H14N2

> <FOUND_BY>
MS Ready Formula

> <DTXCID_INDIVIDUAL_COMPONENT>
DTXCID90608418

> <FORMULA_INDIVIDUAL_COMPONENT>
C10H14N2

> <SMILES_INDIVIDUAL_COMPONENT>
CC(C)=CCNC1=CC=CC=N1

> <MAPPED_DTXSID>
DTXSID50657669

> <PREFERRED_NAME_DTXSID>
N-(3-Methylbut-2-en-1-yl)pyridin-2-amine

> <CASRN_DTXSID>
62327-66-6

> <FORMULA_MAPPED_DTXSID>
C10H14N2

> <SMILES_MAPPED_DTXSID>
CC(C)=CCNC1=CC=CC=N1

> <MS_READY_SMILES>
CC(C)=CCNC1=CC=CC=N1

> <INCHI_STRING_DTXCID>
InChI=1S/C10H14N2/c1-9(2)6-8-12-10-5-3-4-7-11-10/h3-7H,8H2,1-2H3,(H,11,12)

> <INCHIKEY_DTXCID>
YJJRIKKGZXGQHB-UHFFFAOYSA-N

> <MONOISOTOPIC_MASS_DTXCID>
162.115698459

> <EXPOCAST_MEDIAN_EXPOSURE_PREDICTION_MG/KG-BW/DAY>
-

> <EXPOCAST>
0

> <NHANES>
0

> <DATA_SOURCES>
2

> <TOXVAL_DATA>
0

> <TOXCAST_PERCENT_ACTIVE>
-

> <TOXCAST_NUMBER_OF_ASSAYS/TOTAL>
-

> <NUMBER_OF_PUBMED_ARTICLES>
-

> <PUBCHEM_DATA_SOURCES>
8

> <CPDAT_COUNT>
-

> <ATMOSPHERIC_HYDROXYLATION_RATE_(AOH)_CM3/MOLECULE*SEC_OPERA_PRED>
4.59177e-11

> <BIOCONCENTRATION_FACTOR_OPERA_PRED>
16.7799

> <BIODEGRADATION_HALF_LIFE_DAYS_DAYS_OPERA_PRED>
3.35496

> <BOILING_POINT_DEGC_OPERA_PRED>
284.812

> <HENRYS_LAW_ATM-M3/MOLE_OPERA_PRED>
3.15899e-08

> <OPERA_KM_DAYS_OPERA_PRED>
0.515069

> <OCTANOL_AIR_PARTITION_COEFF_LOGKOA_OPERA_PRED>
8.48169

> <SOIL_ADSORPTION_COEFFICIENT_KOC_L/KG_OPERA_PRED>
54.1464

> <OCTANOL_WATER_PARTITION_LOGP_OPERA_PRED>
1.57951

> <MELTING_POINT_DEGC_OPERA_PRED>
84.0935

> <VAPOR_PRESSURE_MMHG_OPERA_PRED>
0.000226611

> <WATER_SOLUBILITY_MOL/L_OPERA_PRED>
0.591381

> <TEST_BCF_TEST_PRED>
15.4882

> <BOILING_POINT_DEGC_TEST_PRED>
268.833

> <DENSITY_G/CM^3_TEST_PRED>
1.044

> <FLASH_POINT_DEGC_TEST_PRED>
134.252

> <MELTING_POINT_DEGC_TEST_PRED>
62.78

> <SURFACE_TENSION_DYN/CM_TEST_PRED>
-

> <THERMAL_CONDUCTIVITY_MW/(M*K)_TEST_PRED>
143.049

> <VISCOSITY_CP_CP_TEST_PRED>
8.41395

> <VAPOR_PRESSURE_MMHG_TEST_PRED>
0.000124165

> <WATER_SOLUBILITY_MOL/L_TEST_PRED>
0.00181134

> <AEGLVALUES>
0

> <ALGALTOX>
0

> <ARCHEMICALS>
0

> <ATSDRLST>
0

> <BISPHENOLS>
0

> <OEHHA>
0

> <CERAPP>
0

> <FUNNAMES>
0

> <KWRSJERPS>
0

> <EPACONS>
0

> <IRIS>
0

> <EPAHFR>
0

> <EUCOSMETICS>
0

> <FRENCHLIST>
0

> <HEROMAP>
0

> <ITNANTIBIOTIC>
0

> <KEMIMARKET>
0

> <MASSBANKREF>
0

> <MASSBANKEUSP>
0

> <NEMILIST>
0

> <NATADB>
0

> <NIOSHIDLH>
0

> <NIOSHICSC>
0

> <NIOSHNPG>
0

> <NIOSHSKIN>
0

> <NORMANCT15>
0

> <SFISHFLUORO>
0

> <NORMANPRI>
0

> <NORMANEWS>
0

> <PFASTRIER>
0

> <SWISSPHARMA>
0

> <PPRTVWEB>
0

> <STOCKHOLM>
0

> <STOFFIDENT>
0

> <SCDM>
0

> <EAWAGSURF>
0

> <SWISSPEST>
0

> <TOX21SL>
0

> <TOXCAST>
0

> <TOXCAST_E1K>
0

> <TOXCAST_PH1V2>
0

> <TOXCAST_PH2>
0

> <TOXCAST_PH3>
0

> <TOXCAST_PHASEI>
0

> <TOXCAST_PHASEII>
0

> <TOXCAST_PHASEIII>
0

> <TRIRELEASE>
0

> <TSCASURF>
0

> <UJIBADE>
0

> <ATHENSSUS>
0

> <UATHTARGETS>
0

$$$$

  Mrv1533009301520152D          

  0  0  0     0  0            999 V3000
M  V30 BEGIN CTAB
M  V30 COUNTS 12 13 0 0 0
M  V30 BEGIN ATOM
M  V30 1 N 3.7483 0.9865 0 0
M  V30 2 N 10.5564 1.1762 0 0
M  V30 3 C 5.2496 -2.131 0 0
M  V30 4 C 3.7483 -1.7885 0 0
M  V30 5 C 6.4536 -1.171 0 0
M  V30 6 C 6.4536 0.3692 0 0
M  V30 7 C 3.08 -0.4008 0 0
M  V30 8 C 5.2496 1.3293 0 0
M  V30 9 C 7.8303 -1.9943 0 0
M  V30 10 C 7.8303 1.1924 0 0
M  V30 11 C 9.2256 0.4011 0 0
M  V30 12 C 9.2256 -1.2029 0 0
M  V30 END ATOM
M  V30 BEGIN BOND
M  V30 1 1 1 7
M  V30 2 1 1 8
M  V30 3 1 2 11
M  V30 4 1 3 4
M  V30 5 1 3 5
M  V30 6 1 4 7
M  V30 7 2 5 6
M  V30 8 1 5 9
M  V30 9 1 6 8
M  V30 10 1 6 10
M  V30 11 2 9 12
M  V30 12 2 10 11
M  V30 13 1 11 12
M  V30 END BOND
M  V30 END CTAB
M  END

> <INPUT>
C10H14N2

> <FOUND_BY>
MS Ready Formula

> <DTXCID_INDIVIDUAL_COMPONENT>
DTXCID60609210

> <FORMULA_INDIVIDUAL_COMPONENT>
C10H14N2

> <SMILES_INDIVIDUAL_COMPONENT>
NC1=CC2=C(CCCNC2)C=C1

> <MAPPED_DTXSID>
DTXSID20658461

> <PREFERRED_NAME_DTXSID>
2,3,4,5-Tetrahydro-1H-2-benzazepin-8-amine

> <CASRN_DTXSID>
72232-25-8

> <FORMULA_MAPPED_DTXSID>
C10H14N2

> <SMILES_MAPPED_DTXSID>
NC1=CC2=C(CCCNC2)C=C1

> <MS_READY_SMILES>
NC1=CC2=C(CCCNC2)C=C1

> <INCHI_STRING_DTXCID>
InChI=1S/C10H14N2/c11-10-4-3-8-2-1-5-12-7-9(8)6-10/h3-4,6,12H,1-2,5,7,11H2

> <INCHIKEY_DTXCID>
DAEJBLXGXUDKSD-UHFFFAOYSA-N

> <MONOISOTOPIC_MASS_DTXCID>
162.115698459

> <EXPOCAST_MEDIAN_EXPOSURE_PREDICTION_MG/KG-BW/DAY>
-

> <EXPOCAST>
0

> <NHANES>
0

> <DATA_SOURCES>
2

> <TOXVAL_DATA>
0

> <TOXCAST_PERCENT_ACTIVE>
-

> <TOXCAST_NUMBER_OF_ASSAYS/TOTAL>
-

> <NUMBER_OF_PUBMED_ARTICLES>
-

> <PUBCHEM_DATA_SOURCES>
16

> <CPDAT_COUNT>
-

> <ATMOSPHERIC_HYDROXYLATION_RATE_(AOH)_CM3/MOLECULE*SEC_OPERA_PRED>
1.90122e-11

> <BIOCONCENTRATION_FACTOR_OPERA_PRED>
8.34345

> <BIODEGRADATION_HALF_LIFE_DAYS_DAYS_OPERA_PRED>
3.85879

> <BOILING_POINT_DEGC_OPERA_PRED>
264.941

> <HENRYS_LAW_ATM-M3/MOLE_OPERA_PRED>
3.63569e-08

> <OPERA_KM_DAYS_OPERA_PRED>
0.170039

> <OCTANOL_AIR_PARTITION_COEFF_LOGKOA_OPERA_PRED>
7.96001

> <SOIL_ADSORPTION_COEFFICIENT_KOC_L/KG_OPERA_PRED>
111.767

> <OCTANOL_WATER_PARTITION_LOGP_OPERA_PRED>
1.66742

> <MELTING_POINT_DEGC_OPERA_PRED>
110.366

> <VAPOR_PRESSURE_MMHG_OPERA_PRED>
3.36654e-05

> <WATER_SOLUBILITY_MOL/L_OPERA_PRED>
0.376904

> <TEST_BCF_TEST_PRED>
-

> <BOILING_POINT_DEGC_TEST_PRED>
302.791

> <DENSITY_G/CM^3_TEST_PRED>
1.09

> <FLASH_POINT_DEGC_TEST_PRED>
136.718

> <MELTING_POINT_DEGC_TEST_PRED>
122.326

> <SURFACE_TENSION_DYN/CM_TEST_PRED>
-

> <THERMAL_CONDUCTIVITY_MW/(M*K)_TEST_PRED>
179.665

> <VISCOSITY_CP_CP_TEST_PRED>
18.7068

> <VAPOR_PRESSURE_MMHG_TEST_PRED>
0.000114551

> <WATER_SOLUBILITY_MOL/L_TEST_PRED>
0.0145546

> <AEGLVALUES>
0

> <ALGALTOX>
0

> <ARCHEMICALS>
0

> <ATSDRLST>
0

> <BISPHENOLS>
0

> <OEHHA>
0

> <CERAPP>
0

> <FUNNAMES>
0

> <KWRSJERPS>
0

> <EPACONS>
0

> <IRIS>
0

> <EPAHFR>
0

> <EUCOSMETICS>
0

> <FRENCHLIST>
0

> <HEROMAP>
0

> <ITNANTIBIOTIC>
0

> <KEMIMARKET>
0

> <MASSBANKREF>
0

> <MASSBANKEUSP>
0

> <NEMILIST>
0

> <NATADB>
0

> <NIOSHIDLH>
0

> <NIOSHICSC>
0

> <NIOSHNPG>
0

> <NIOSHSKIN>
0

> <NORMANCT15>
0

> <SFISHFLUORO>
0

> <NORMANPRI>
0

> <NORMANEWS>
0

> <PFASTRIER>
0

> <SWISSPHARMA>
0

> <PPRTVWEB>
0

> <STOCKHOLM>
0

> <STOFFIDENT>
0

> <SCDM>
0

> <EAWAGSURF>
0

> <SWISSPEST>
0

> <TOX21SL>
0

> <TOXCAST>
0

> <TOXCAST_E1K>
0

> <TOXCAST_PH1V2>
0

> <TOXCAST_PH2>
0

> <TOXCAST_PH3>
0

> <TOXCAST_PHASEI>
0

> <TOXCAST_PHASEII>
0

> <TOXCAST_PHASEIII>
0

> <TRIRELEASE>
0

> <TSCASURF>
0

> <UJIBADE>
0

> <ATHENSSUS>
0

> <UATHTARGETS>
0

$$$$

  Mrv1533009301517252D          

  0  0  0     0  0            999 V3000
M  V30 BEGIN CTAB
M  V30 COUNTS 12 13 0 0 0
M  V30 BEGIN ATOM
M  V30 1 C 2.3066 -6.6665 0 0
M  V30 2 C 3.0799 -5.3332 0 0
M  V30 3 N 2.3066 -3.9999 0 0
M  V30 4 C 0.7667 -3.9999 0 0
M  V30 5 C 0 -5.3332 0 0
M  V30 6 N 0.7667 -6.6665 0 0
M  V30 7 C 3.0799 -2.6665 0 0
M  V30 8 C 4.6199 -2.6665 0 0
M  V30 9 C 5.3866 -1.3333 0 0
M  V30 10 C 4.6199 0 0 0
M  V30 11 C 3.0799 0 0 0
M  V30 12 C 2.3066 -1.3333 0 0
M  V30 END ATOM
M  V30 BEGIN BOND
M  V30 1 1 1 2
M  V30 2 1 1 6
M  V30 3 1 2 3
M  V30 4 1 3 4
M  V30 5 1 3 7
M  V30 6 1 4 5
M  V30 7 1 5 6
M  V30 8 2 7 8
M  V30 9 1 7 12
M  V30 10 1 8 9
M  V30 11 2 9 10
M  V30 12 1 10 11
M  V30 13 2 11 12
M  V30 END BOND
M  V30 END CTAB
M  END

> <INPUT>
C10H14N2

> <FOUND_BY>
MS Ready Formula

> <DTXCID_INDIVIDUAL_COMPONENT>
DTXCID9031644

> <FORMULA_INDIVIDUAL_COMPONENT>
C10H14N2

> <SMILES_INDIVIDUAL_COMPONENT>
C1CN(CCN1)C1=CC=CC=C1

> <MAPPED_DTXSID>
DTXSID00715061

> <PREFERRED_NAME_DTXSID>
2,3-Dihydroxybutanedioic acid--1-phenylpiperazine (1/1)

> <CASRN_DTXSID>
23349-55-5

> <FORMULA_MAPPED_DTXSID>
C14H20N2O6

> <SMILES_MAPPED_DTXSID>
OC(C(O)C(O)=O)C(O)=O.C1CN(CCN1)C1=CC=CC=C1

> <MS_READY_SMILES>
C1CN(CCN1)C1=CC=CC=C1,OC(C(O)C(O)=O)C(O)=O

> <INCHI_STRING_DTXCID>
InChI=1S/C10H14N2/c1-2-4-10(5-3-1)12-8-6-11-7-9-12/h1-5,11H,6-9H2

> <INCHIKEY_DTXCID>
YZTJYBJCZXZGCT-UHFFFAOYSA-N

> <MONOISOTOPIC_MASS_DTXCID>
162.115698459

> <EXPOCAST_MEDIAN_EXPOSURE_PREDICTION_MG/KG-BW/DAY>
-

> <EXPOCAST>
0

> <NHANES>
0

> <DATA_SOURCES>
2

> <TOXVAL_DATA>
0

> <TOXCAST_PERCENT_ACTIVE>
-

> <TOXCAST_NUMBER_OF_ASSAYS/TOTAL>
-

> <NUMBER_OF_PUBMED_ARTICLES>
-

> <PUBCHEM_DATA_SOURCES>
3

> <CPDAT_COUNT>
-

> <ATMOSPHERIC_HYDROXYLATION_RATE_(AOH)_CM3/MOLECULE*SEC_OPERA_PRED>
1.75521e-11

> <BIOCONCENTRATION_FACTOR_OPERA_PRED>
6.19709

> <BIODEGRADATION_HALF_LIFE_DAYS_DAYS_OPERA_PRED>
12.0774

> <BOILING_POINT_DEGC_OPERA_PRED>
288.087

> <HENRYS_LAW_ATM-M3/MOLE_OPERA_PRED>
2.60688e-07

> <OPERA_KM_DAYS_OPERA_PRED>
0.30067

> <OCTANOL_AIR_PARTITION_COEFF_LOGKOA_OPERA_PRED>
8.55338

> <SOIL_ADSORPTION_COEFFICIENT_KOC_L/KG_OPERA_PRED>
160.634

> <OCTANOL_WATER_PARTITION_LOGP_OPERA_PRED>
1.21176

> <MELTING_POINT_DEGC_OPERA_PRED>
45.892

> <VAPOR_PRESSURE_MMHG_OPERA_PRED>
0.00666262

> <WATER_SOLUBILITY_MOL/L_OPERA_PRED>
0.145931

> <TEST_BCF_TEST_PRED>
8.24138

> <BOILING_POINT_DEGC_TEST_PRED>
272.941

> <DENSITY_G/CM^3_TEST_PRED>
1.028

> <FLASH_POINT_DEGC_TEST_PRED>
118.779

> <MELTING_POINT_DEGC_TEST_PRED>
57.971

> <SURFACE_TENSION_DYN/CM_TEST_PRED>
37.464

> <THERMAL_CONDUCTIVITY_MW/(M*K)_TEST_PRED>
161.939

> <VISCOSITY_CP_CP_TEST_PRED>
7.16143

> <VAPOR_PRESSURE_MMHG_TEST_PRED>
0.00416869

> <WATER_SOLUBILITY_MOL/L_TEST_PRED>
0.0399025

> <AEGLVALUES>
0

> <ALGALTOX>
0

> <ARCHEMICALS>
0

> <ATSDRLST>
0

> <BISPHENOLS>
0

> <OEHHA>
0

> <CERAPP>
0

> <FUNNAMES>
0

> <KWRSJERPS>
0

> <EPACONS>
0

> <IRIS>
0

> <EPAHFR>
0

> <EUCOSMETICS>
0

> <FRENCHLIST>
0

> <HEROMAP>
0

> <ITNANTIBIOTIC>
0

> <KEMIMARKET>
0

> <MASSBANKREF>
0

> <MASSBANKEUSP>
0

> <NEMILIST>
0

> <NATADB>
0

> <NIOSHIDLH>
0

> <NIOSHICSC>
0

> <NIOSHNPG>
0

> <NIOSHSKIN>
0

> <NORMANCT15>
0

> <SFISHFLUORO>
0

> <NORMANPRI>
0

> <NORMANEWS>
0

> <PFASTRIER>
0

> <SWISSPHARMA>
0

> <PPRTVWEB>
0

> <STOCKHOLM>
0

> <STOFFIDENT>
0

> <SCDM>
0

> <EAWAGSURF>
0

> <SWISSPEST>
0

> <TOX21SL>
0

> <TOXCAST>
0

> <TOXCAST_E1K>
0

> <TOXCAST_PH1V2>
0

> <TOXCAST_PH2>
0

> <TOXCAST_PH3>
0

> <TOXCAST_PHASEI>
0

> <TOXCAST_PHASEII>
0

> <TOXCAST_PHASEIII>
0

> <TRIRELEASE>
0

> <TSCASURF>
0

> <UJIBADE>
0

> <ATHENSSUS>
0

> <UATHTARGETS>
0

$$$$
1012238
  Mrv1611108061719162D          

  0  0  0     0  0            999 V3000
M  V30 BEGIN CTAB
M  V30 COUNTS 12 12 0 0 0
M  V30 BEGIN ATOM
M  V30 1 N 2.3927 2.932 0 0
M  V30 2 C 1.059 2.162 0 0
M  V30 3 C 1.059 0.622 0 0
M  V30 4 C -0.2746 -0.148 0 0
M  V30 5 C -1.6083 0.622 0 0
M  V30 6 C -0.2746 -1.688 0 0
M  V30 7 C 1.059 -2.458 0 0
M  V30 8 C 1.059 -3.998 0 0
M  V30 9 C -0.2746 -4.768 0 0
M  V30 10 C -1.6083 -3.998 0 0
M  V30 11 N -1.6083 -2.458 0 0
M  V30 12 C 2.3927 4.472 0 0
M  V30 END ATOM
M  V30 BEGIN BOND
M  V30 1 2 1 2
M  V30 2 1 2 3
M  V30 3 1 3 4
M  V30 4 1 4 5
M  V30 5 1 4 6
M  V30 6 2 6 7
M  V30 7 1 7 8
M  V30 8 2 8 9
M  V30 9 1 9 10
M  V30 10 2 10 11
M  V30 11 1 11 6
M  V30 12 1 1 12
M  V30 END BOND
M  V30 END CTAB
M  END

> <INPUT>
C10H14N2

> <FOUND_BY>
MS Ready Formula

> <DTXCID_INDIVIDUAL_COMPONENT>
DTXCID801032729

> <FORMULA_INDIVIDUAL_COMPONENT>
C10H14N2

> <SMILES_INDIVIDUAL_COMPONENT>
C\N=C\CC(C)C1=CC=CC=N1

> <MAPPED_DTXSID>
DTXSID20874104

> <PREFERRED_NAME_DTXSID>
N-Me-(3-Pyridylbutene-1-yl)-amine

> <CASRN_DTXSID>
NOCAS_874104

> <FORMULA_MAPPED_DTXSID>
C10H14N2

> <SMILES_MAPPED_DTXSID>
CN\C=C\C(C)C1=CC=CC=N1

> <MS_READY_SMILES>
CN=CCC(C)C1=NC=CC=C1

> <INCHI_STRING_DTXCID>
InChI=1S/C10H14N2/c1-9(6-8-11-2)10-5-3-4-7-12-10/h3-5,7-9H,6H2,1-2H3/b11-8+

> <INCHIKEY_DTXCID>
PPDVXHJLDOVDFC-DHZHZOJOSA-N

> <MONOISOTOPIC_MASS_DTXCID>
162.115698459

> <EXPOCAST_MEDIAN_EXPOSURE_PREDICTION_MG/KG-BW/DAY>
-

> <EXPOCAST>
0

> <NHANES>
0

> <DATA_SOURCES>
2

> <TOXVAL_DATA>
0

> <TOXCAST_PERCENT_ACTIVE>
-

> <TOXCAST_NUMBER_OF_ASSAYS/TOTAL>
-

> <NUMBER_OF_PUBMED_ARTICLES>
-

> <PUBCHEM_DATA_SOURCES>
-

> <CPDAT_COUNT>
-

> <ATMOSPHERIC_HYDROXYLATION_RATE_(AOH)_CM3/MOLECULE*SEC_OPERA_PRED>
2.26131e-11

> <BIOCONCENTRATION_FACTOR_OPERA_PRED>
14.7539

> <BIODEGRADATION_HALF_LIFE_DAYS_DAYS_OPERA_PRED>
3.34894

> <BOILING_POINT_DEGC_OPERA_PRED>
223.145

> <HENRYS_LAW_ATM-M3/MOLE_OPERA_PRED>
2.60585e-05

> <OPERA_KM_DAYS_OPERA_PRED>
3.53381

> <OCTANOL_AIR_PARTITION_COEFF_LOGKOA_OPERA_PRED>
4.83992

> <SOIL_ADSORPTION_COEFFICIENT_KOC_L/KG_OPERA_PRED>
73.0693

> <OCTANOL_WATER_PARTITION_LOGP_OPERA_PRED>
1.62748

> <MELTING_POINT_DEGC_OPERA_PRED>
50.2299

> <VAPOR_PRESSURE_MMHG_OPERA_PRED>
0.0691512

> <WATER_SOLUBILITY_MOL/L_OPERA_PRED>
0.0105579

> <TEST_BCF_TEST_PRED>
-

> <BOILING_POINT_DEGC_TEST_PRED>
-

> <DENSITY_G/CM^3_TEST_PRED>
-

> <FLASH_POINT_DEGC_TEST_PRED>
-

> <MELTING_POINT_DEGC_TEST_PRED>
-

> <SURFACE_TENSION_DYN/CM_TEST_PRED>
-

> <THERMAL_CONDUCTIVITY_MW/(M*K)_TEST_PRED>
-

> <VISCOSITY_CP_CP_TEST_PRED>
-

> <VAPOR_PRESSURE_MMHG_TEST_PRED>
-

> <WATER_SOLUBILITY_MOL/L_TEST_PRED>
-

> <AEGLVALUES>
0

> <ALGALTOX>
0

> <ARCHEMICALS>
0

> <ATSDRLST>
0

> <BISPHENOLS>
0

> <OEHHA>
0

> <CERAPP>
0

> <FUNNAMES>
0

> <KWRSJERPS>
0

> <EPACONS>
0

> <IRIS>
0

> <EPAHFR>
0

> <EUCOSMETICS>
0

> <FRENCHLIST>
0

> <HEROMAP>
0

> <ITNANTIBIOTIC>
0

> <KEMIMARKET>
0

> <MASSBANKREF>
0

> <MASSBANKEUSP>
0

> <NEMILIST>
0

> <NATADB>
0

> <NIOSHIDLH>
0

> <NIOSHICSC>
0

> <NIOSHNPG>
0

> <NIOSHSKIN>
0

> <NORMANCT15>
0

> <SFISHFLUORO>
0

> <NORMANPRI>
0

> <NORMANEWS>
0

> <PFASTRIER>
0

> <SWISSPHARMA>
0

> <PPRTVWEB>
0

> <STOCKHOLM>
0

> <STOFFIDENT>
0

> <SCDM>
0

> <EAWAGSURF>
0

> <SWISSPEST>
0

> <TOX21SL>
0

> <TOXCAST>
0

> <TOXCAST_E1K>
0

> <TOXCAST_PH1V2>
0

> <TOXCAST_PH2>
0

> <TOXCAST_PH3>
0

> <TOXCAST_PHASEI>
0

> <TOXCAST_PHASEII>
0

> <TOXCAST_PHASEIII>
0

> <TRIRELEASE>
0

> <TSCASURF>
0

> <UJIBADE>
0

> <ATHENSSUS>
0

> <UATHTARGETS>
0

$$$$
1014173
  Mrv1611108061719182D          

  0  0  0     0  0            999 V3000
M  V30 BEGIN CTAB
M  V30 COUNTS 12 12 0 0 0
M  V30 BEGIN ATOM
M  V30 1 C 0 1.54 0 0
M  V30 2 N -1.3337 2.31 0 0
M  V30 3 N -1.3337 3.85 0 0
M  V30 4 C -2.6674 4.6199 0 0
M  V30 5 C 0 0 0 0
M  V30 6 C 1.3337 -0.77 0 0
M  V30 7 C 1.3337 -2.31 0 0
M  V30 8 C 2.6674 -3.08 0 0
M  V30 9 C 2.6674 -4.6199 0 0
M  V30 10 C 1.3337 -5.3899 0 0
M  V30 11 C 0 -4.6199 0 0
M  V30 12 C 0 -3.08 0 0
M  V30 END ATOM
M  V30 BEGIN BOND
M  V30 1 1 1 2
M  V30 2 2 2 3
M  V30 3 1 3 4
M  V30 4 1 1 5
M  V30 5 1 5 6
M  V30 6 1 6 7
M  V30 7 1 7 8
M  V30 8 2 8 9
M  V30 9 1 9 10
M  V30 10 2 10 11
M  V30 11 1 11 12
M  V30 12 2 12 7
M  V30 END BOND
M  V30 END CTAB
M  END

> <INPUT>
C10H14N2

> <FOUND_BY>
MS Ready Formula

> <DTXCID_INDIVIDUAL_COMPONENT>
DTXCID701032833

> <FORMULA_INDIVIDUAL_COMPONENT>
C10H14N2

> <SMILES_INDIVIDUAL_COMPONENT>
C\N=N\CCCC1=CC=CC=C1

> <MAPPED_DTXSID>
DTXSID90876059

> <PREFERRED_NAME_DTXSID>
w-Phenylpropionaldehyd N-Me hydrazone

> <CASRN_DTXSID>
NOCAS_876059

> <FORMULA_MAPPED_DTXSID>
C10H14N2

> <SMILES_MAPPED_DTXSID>
CN\N=C\CCC1=CC=CC=C1

> <MS_READY_SMILES>
CN=NCCCC1=CC=CC=C1

> <INCHI_STRING_DTXCID>
InChI=1S/C10H14N2/c1-11-12-9-5-8-10-6-3-2-4-7-10/h2-4,6-7H,5,8-9H2,1H3/b12-11+

> <INCHIKEY_DTXCID>
WLTBVTUQXAVSLH-VAWYXSNFSA-N

> <MONOISOTOPIC_MASS_DTXCID>
162.115698459

> <EXPOCAST_MEDIAN_EXPOSURE_PREDICTION_MG/KG-BW/DAY>
-

> <EXPOCAST>
0

> <NHANES>
0

> <DATA_SOURCES>
2

> <TOXVAL_DATA>
0

> <TOXCAST_PERCENT_ACTIVE>
-

> <TOXCAST_NUMBER_OF_ASSAYS/TOTAL>
-

> <NUMBER_OF_PUBMED_ARTICLES>
-

> <PUBCHEM_DATA_SOURCES>
-

> <CPDAT_COUNT>
-

> <ATMOSPHERIC_HYDROXYLATION_RATE_(AOH)_CM3/MOLECULE*SEC_OPERA_PRED>
3.15687e-11

> <BIOCONCENTRATION_FACTOR_OPERA_PRED>
111.688

> <BIODEGRADATION_HALF_LIFE_DAYS_DAYS_OPERA_PRED>
3.53074

> <BOILING_POINT_DEGC_OPERA_PRED>
190.167

> <HENRYS_LAW_ATM-M3/MOLE_OPERA_PRED>
0.00044437

> <OPERA_KM_DAYS_OPERA_PRED>
2.57344

> <OCTANOL_AIR_PARTITION_COEFF_LOGKOA_OPERA_PRED>
4.31154

> <SOIL_ADSORPTION_COEFFICIENT_KOC_L/KG_OPERA_PRED>
111.528

> <OCTANOL_WATER_PARTITION_LOGP_OPERA_PRED>
2.34911

> <MELTING_POINT_DEGC_OPERA_PRED>
38.858

> <VAPOR_PRESSURE_MMHG_OPERA_PRED>
0.116759

> <WATER_SOLUBILITY_MOL/L_OPERA_PRED>
0.000510831

> <TEST_BCF_TEST_PRED>
-

> <BOILING_POINT_DEGC_TEST_PRED>
-

> <DENSITY_G/CM^3_TEST_PRED>
-

> <FLASH_POINT_DEGC_TEST_PRED>
-

> <MELTING_POINT_DEGC_TEST_PRED>
-

> <SURFACE_TENSION_DYN/CM_TEST_PRED>
-

> <THERMAL_CONDUCTIVITY_MW/(M*K)_TEST_PRED>
-

> <VISCOSITY_CP_CP_TEST_PRED>
-

> <VAPOR_PRESSURE_MMHG_TEST_PRED>
-

> <WATER_SOLUBILITY_MOL/L_TEST_PRED>
-

> <AEGLVALUES>
0

> <ALGALTOX>
0

> <ARCHEMICALS>
0

> <ATSDRLST>
0

> <BISPHENOLS>
0

> <OEHHA>
0

> <CERAPP>
0

> <FUNNAMES>
0

> <KWRSJERPS>
0

> <EPACONS>
0

> <IRIS>
0

> <EPAHFR>
0

> <EUCOSMETICS>
0

> <FRENCHLIST>
0

> <HEROMAP>
0

> <ITNANTIBIOTIC>
0

> <KEMIMARKET>
0

> <MASSBANKREF>
0

> <MASSBANKEUSP>
0

> <NEMILIST>
0

> <NATADB>
0

> <NIOSHIDLH>
0

> <NIOSHICSC>
0

> <NIOSHNPG>
0

> <NIOSHSKIN>
0

> <NORMANCT15>
0

> <SFISHFLUORO>
0

> <NORMANPRI>
0

> <NORMANEWS>
0

> <PFASTRIER>
0

> <SWISSPHARMA>
0

> <PPRTVWEB>
0

> <STOCKHOLM>
0

> <STOFFIDENT>
0

> <SCDM>
0

> <EAWAGSURF>
0

> <SWISSPEST>
0

> <TOX21SL>
0

> <TOXCAST>
0

> <TOXCAST_E1K>
0

> <TOXCAST_PH1V2>
0

> <TOXCAST_PH2>
0

> <TOXCAST_PH3>
0

> <TOXCAST_PHASEI>
0

> <TOXCAST_PHASEII>
0

> <TOXCAST_PHASEIII>
0

> <TRIRELEASE>
0

> <TSCASURF>
0

> <UJIBADE>
0

> <ATHENSSUS>
0

> <UATHTARGETS>
0

$$$$

  Mrv1611106291700532D          

  0  0  0     0  0            999 V3000
M  V30 BEGIN CTAB
M  V30 COUNTS 12 12 0 0 0
M  V30 BEGIN ATOM
M  V30 1 C 2.6968 -3.3377 0 0
M  V30 2 C 1.9292 -2.0026 0 0
M  V30 3 C 2.6968 -0.6676 0 0
M  V30 4 C 1.9292 0.6676 0 0
M  V30 5 C 0.3872 0.6676 0 0
M  V30 6 C -0.3872 -0.6676 0 0
M  V30 7 C 0.3872 -2.0026 0 0
M  V30 8 C -1.9292 -0.6676 0 0
M  V30 9 N -0.3872 2.0026 0 0
M  V30 10 C 0.3872 3.3377 0 0
M  V30 11 C -1.9292 2.0026 0 0
M  V30 12 N -2.6968 0.6676 0 0
M  V30 END ATOM
M  V30 BEGIN BOND
M  V30 1 1 2 1
M  V30 2 1 3 2
M  V30 3 2 7 2
M  V30 4 2 4 3
M  V30 5 1 5 4
M  V30 6 2 6 5
M  V30 7 1 9 5
M  V30 8 1 7 6
M  V30 9 1 8 6
M  V30 10 1 10 9
M  V30 11 1 11 9
M  V30 12 2 12 11
M  V30 END BOND
M  V30 END CTAB
M  END

> <INPUT>
C10H14N2

> <FOUND_BY>
MS Ready Formula

> <DTXCID_INDIVIDUAL_COMPONENT>
DTXCID001030555

> <FORMULA_INDIVIDUAL_COMPONENT>
C10H14N2

> <SMILES_INDIVIDUAL_COMPONENT>
CN(C=N)C1=C(C)C=C(C)C=C1

> <MAPPED_DTXSID>
DTXSID70891442

> <PREFERRED_NAME_DTXSID>
N-(2,4-Dimethylphenyl)-N-methylimidoformamide

> <CASRN_DTXSID>
NOCAS_891442

> <FORMULA_MAPPED_DTXSID>
C10H14N2

> <SMILES_MAPPED_DTXSID>
CN(C=N)C1=C(C)C=C(C)C=C1

> <MS_READY_SMILES>
CN(C=N)C1=C(C)C=C(C)C=C1

> <INCHI_STRING_DTXCID>
InChI=1S/C10H14N2/c1-8-4-5-10(9(2)6-8)12(3)7-11/h4-7,11H,1-3H3

> <INCHIKEY_DTXCID>
UBLNTZNUSGCINZ-UHFFFAOYSA-N

> <MONOISOTOPIC_MASS_DTXCID>
162.115698459

> <EXPOCAST_MEDIAN_EXPOSURE_PREDICTION_MG/KG-BW/DAY>
-

> <EXPOCAST>
0

> <NHANES>
0

> <DATA_SOURCES>
2

> <TOXVAL_DATA>
0

> <TOXCAST_PERCENT_ACTIVE>
-

> <TOXCAST_NUMBER_OF_ASSAYS/TOTAL>
-

> <NUMBER_OF_PUBMED_ARTICLES>
-

> <PUBCHEM_DATA_SOURCES>
-

> <CPDAT_COUNT>
-

> <ATMOSPHERIC_HYDROXYLATION_RATE_(AOH)_CM3/MOLECULE*SEC_OPERA_PRED>
2.51104e-11

> <BIOCONCENTRATION_FACTOR_OPERA_PRED>
5.26292

> <BIODEGRADATION_HALF_LIFE_DAYS_DAYS_OPERA_PRED>
3.34293

> <BOILING_POINT_DEGC_OPERA_PRED>
295.689

> <HENRYS_LAW_ATM-M3/MOLE_OPERA_PRED>
2.72978e-07

> <OPERA_KM_DAYS_OPERA_PRED>
0.172012

> <OCTANOL_AIR_PARTITION_COEFF_LOGKOA_OPERA_PRED>
7.61242

> <SOIL_ADSORPTION_COEFFICIENT_KOC_L/KG_OPERA_PRED>
84.7824

> <OCTANOL_WATER_PARTITION_LOGP_OPERA_PRED>
1.54243

> <MELTING_POINT_DEGC_OPERA_PRED>
91.6292

> <VAPOR_PRESSURE_MMHG_OPERA_PRED>
9.9068e-05

> <WATER_SOLUBILITY_MOL/L_OPERA_PRED>
0.00388722

> <TEST_BCF_TEST_PRED>
-

> <BOILING_POINT_DEGC_TEST_PRED>
-

> <DENSITY_G/CM^3_TEST_PRED>
-

> <FLASH_POINT_DEGC_TEST_PRED>
-

> <MELTING_POINT_DEGC_TEST_PRED>
-

> <SURFACE_TENSION_DYN/CM_TEST_PRED>
-

> <THERMAL_CONDUCTIVITY_MW/(M*K)_TEST_PRED>
-

> <VISCOSITY_CP_CP_TEST_PRED>
-

> <VAPOR_PRESSURE_MMHG_TEST_PRED>
-

> <WATER_SOLUBILITY_MOL/L_TEST_PRED>
-

> <AEGLVALUES>
0

> <ALGALTOX>
0

> <ARCHEMICALS>
0

> <ATSDRLST>
0

> <BISPHENOLS>
0

> <OEHHA>
0

> <CERAPP>
0

> <FUNNAMES>
0

> <KWRSJERPS>
0

> <EPACONS>
0

> <IRIS>
0

> <EPAHFR>
0

> <EUCOSMETICS>
0

> <FRENCHLIST>
0

> <HEROMAP>
0

> <ITNANTIBIOTIC>
0

> <KEMIMARKET>
0

> <MASSBANKREF>
1

> <MASSBANKEUSP>
0

> <NEMILIST>
0

> <NATADB>
0

> <NIOSHIDLH>
0

> <NIOSHICSC>
0

> <NIOSHNPG>
0

> <NIOSHSKIN>
0

> <NORMANCT15>
0

> <SFISHFLUORO>
0

> <NORMANPRI>
0

> <NORMANEWS>
0

> <PFASTRIER>
0

> <SWISSPHARMA>
0

> <PPRTVWEB>
0

> <STOCKHOLM>
0

> <STOFFIDENT>
0

> <SCDM>
0

> <EAWAGSURF>
0

> <SWISSPEST>
0

> <TOX21SL>
0

> <TOXCAST>
0

> <TOXCAST_E1K>
0

> <TOXCAST_PH1V2>
0

> <TOXCAST_PH2>
0

> <TOXCAST_PH3>
0

> <TOXCAST_PHASEI>
0

> <TOXCAST_PHASEII>
0

> <TOXCAST_PHASEIII>
0

> <TRIRELEASE>
0

> <TSCASURF>
0

> <UJIBADE>
0

> <ATHENSSUS>
0

> <UATHTARGETS>
0

$$$$

  Mrv1533009301518272D          

  0  0  0     0  0            999 V3000
M  V30 BEGIN CTAB
M  V30 COUNTS 12 12 0 0 0
M  V30 BEGIN ATOM
M  V30 1 N 5.7475 3.08 0 0
M  V30 2 N 4.4137 0.77 0 0
M  V30 3 C 5.7475 1.54 0 0
M  V30 4 C 4.4137 -0.77 0 0
M  V30 5 C 7.0812 3.85 0 0
M  V30 6 C 4.4137 3.85 0 0
M  V30 7 C 7.0812 0.77 0 0
M  V30 8 C 3.08 -1.54 0 0
M  V30 9 C 5.7475 -1.54 0 0
M  V30 10 C 3.08 -3.08 0 0
M  V30 11 C 5.7475 -3.08 0 0
M  V30 12 C 4.4137 -3.85 0 0
M  V30 END ATOM
M  V30 BEGIN BOND
M  V30 1 1 1 3
M  V30 2 1 1 5
M  V30 3 1 1 6
M  V30 4 2 2 3
M  V30 5 1 2 4
M  V30 6 1 3 7
M  V30 7 2 4 8
M  V30 8 1 4 9
M  V30 9 1 8 10
M  V30 10 2 9 11
M  V30 11 2 10 12
M  V30 12 1 11 12
M  V30 END BOND
M  V30 END CTAB
M  END

> <INPUT>
C10H14N2

> <FOUND_BY>
MS Ready Formula

> <DTXCID_INDIVIDUAL_COMPONENT>
DTXCID50286554

> <FORMULA_INDIVIDUAL_COMPONENT>
C10H14N2

> <SMILES_INDIVIDUAL_COMPONENT>
CN(C)C(\C)=N\C1=CC=CC=C1

> <MAPPED_DTXSID>
DTXSID00335465

> <PREFERRED_NAME_DTXSID>
N'-Phenyl-N,N-dimethyl-acetamidine

> <CASRN_DTXSID>
4023-12-5

> <FORMULA_MAPPED_DTXSID>
C10H14N2

> <SMILES_MAPPED_DTXSID>
CN(C)C(\C)=N\C1=CC=CC=C1

> <MS_READY_SMILES>
CN(C)C(C)=NC1=CC=CC=C1

> <INCHI_STRING_DTXCID>
InChI=1S/C10H14N2/c1-9(12(2)3)11-10-7-5-4-6-8-10/h4-8H,1-3H3/b11-9+

> <INCHIKEY_DTXCID>
ARYJQIYRCNBDOU-PKNBQFBNSA-N

> <MONOISOTOPIC_MASS_DTXCID>
162.115698459

> <EXPOCAST_MEDIAN_EXPOSURE_PREDICTION_MG/KG-BW/DAY>
-

> <EXPOCAST>
0

> <NHANES>
0

> <DATA_SOURCES>
1

> <TOXVAL_DATA>
0

> <TOXCAST_PERCENT_ACTIVE>
-

> <TOXCAST_NUMBER_OF_ASSAYS/TOTAL>
-

> <NUMBER_OF_PUBMED_ARTICLES>
-

> <PUBCHEM_DATA_SOURCES>
13

> <CPDAT_COUNT>
-

> <ATMOSPHERIC_HYDROXYLATION_RATE_(AOH)_CM3/MOLECULE*SEC_OPERA_PRED>
1.85327e-11

> <BIOCONCENTRATION_FACTOR_OPERA_PRED>
5.83829

> <BIODEGRADATION_HALF_LIFE_DAYS_DAYS_OPERA_PRED>
4.97705

> <BOILING_POINT_DEGC_OPERA_PRED>
221.587

> <HENRYS_LAW_ATM-M3/MOLE_OPERA_PRED>
2.46812e-05

> <OPERA_KM_DAYS_OPERA_PRED>
3.00736

> <OCTANOL_AIR_PARTITION_COEFF_LOGKOA_OPERA_PRED>
4.45184

> <SOIL_ADSORPTION_COEFFICIENT_KOC_L/KG_OPERA_PRED>
85.7019

> <OCTANOL_WATER_PARTITION_LOGP_OPERA_PRED>
2.24607

> <MELTING_POINT_DEGC_OPERA_PRED>
48.3982

> <VAPOR_PRESSURE_MMHG_OPERA_PRED>
0.0067377

> <WATER_SOLUBILITY_MOL/L_OPERA_PRED>
0.0180202

> <TEST_BCF_TEST_PRED>
12.388

> <BOILING_POINT_DEGC_TEST_PRED>
-

> <DENSITY_G/CM^3_TEST_PRED>
1.094

> <FLASH_POINT_DEGC_TEST_PRED>
129.51

> <MELTING_POINT_DEGC_TEST_PRED>
108.909

> <SURFACE_TENSION_DYN/CM_TEST_PRED>
-

> <THERMAL_CONDUCTIVITY_MW/(M*K)_TEST_PRED>
-

> <VISCOSITY_CP_CP_TEST_PRED>
-

> <VAPOR_PRESSURE_MMHG_TEST_PRED>
0.000363078

> <WATER_SOLUBILITY_MOL/L_TEST_PRED>
0.0381066

> <AEGLVALUES>
0

> <ALGALTOX>
0

> <ARCHEMICALS>
0

> <ATSDRLST>
0

> <BISPHENOLS>
0

> <OEHHA>
0

> <CERAPP>
0

> <FUNNAMES>
0

> <KWRSJERPS>
0

> <EPACONS>
0

> <IRIS>
0

> <EPAHFR>
0

> <EUCOSMETICS>
0

> <FRENCHLIST>
0

> <HEROMAP>
0

> <ITNANTIBIOTIC>
0

> <KEMIMARKET>
0

> <MASSBANKREF>
0

> <MASSBANKEUSP>
0

> <NEMILIST>
0

> <NATADB>
0

> <NIOSHIDLH>
0

> <NIOSHICSC>
0

> <NIOSHNPG>
0

> <NIOSHSKIN>
0

> <NORMANCT15>
0

> <SFISHFLUORO>
0

> <NORMANPRI>
0

> <NORMANEWS>
0

> <PFASTRIER>
0

> <SWISSPHARMA>
0

> <PPRTVWEB>
0

> <STOCKHOLM>
0

> <STOFFIDENT>
0

> <SCDM>
0

> <EAWAGSURF>
0

> <SWISSPEST>
0

> <TOX21SL>
0

> <TOXCAST>
0

> <TOXCAST_E1K>
0

> <TOXCAST_PH1V2>
0

> <TOXCAST_PH2>
0

> <TOXCAST_PH3>
0

> <TOXCAST_PHASEI>
0

> <TOXCAST_PHASEII>
0

> <TOXCAST_PHASEIII>
0

> <TRIRELEASE>
0

> <TSCASURF>
0

> <UJIBADE>
0

> <ATHENSSUS>
0

> <UATHTARGETS>
0

$$$$

  Mrv1533009301518342D          

  0  0  0     0  0            999 V3000
M  V30 BEGIN CTAB
M  V30 COUNTS 12 13 0 0 1
M  V30 BEGIN ATOM
M  V30 1 N 7.2048 -0.5884 0 0
M  V30 2 N 9.6684 2.657 0 0
M  V30 3 C 8.1036 -1.8275 0 0
M  V30 4 C 7.2048 -3.0669 0 0
M  V30 5 C 5.7475 -1.0575 0 0
M  V30 6 C 5.7475 -2.5977 0 0
M  V30 7 C 7.683 0.8755 0 0
M  V30 8 C 4.4137 -0.2875 0 0
M  V30 9 C 4.4137 -3.3677 0 0
M  V30 10 C 9.19 1.193 0 0
M  V30 11 C 3.08 -1.0575 0 0
M  V30 12 C 3.08 -2.5977 0 0
M  V30 END ATOM
M  V30 BEGIN BOND
M  V30 1 1 1 3
M  V30 2 1 1 5
M  V30 3 1 1 7
M  V30 4 1 2 10
M  V30 5 1 3 4
M  V30 6 1 4 6
M  V30 7 1 5 6
M  V30 8 2 5 8
M  V30 9 2 6 9
M  V30 10 1 7 10
M  V30 11 1 8 11
M  V30 12 1 9 12
M  V30 13 2 11 12
M  V30 END BOND
M  V30 END CTAB
M  END

> <INPUT>
C10H14N2

> <FOUND_BY>
MS Ready Formula

> <DTXCID_INDIVIDUAL_COMPONENT>
DTXCID20311120

> <FORMULA_INDIVIDUAL_COMPONENT>
C10H14N2

> <SMILES_INDIVIDUAL_COMPONENT>
NCCN1CCC2=CC=CC=C12

> <MAPPED_DTXSID>
DTXSID30360068

> <PREFERRED_NAME_DTXSID>
2-(2,3-dihydro-1H-indol-1-yl)ethanamine

> <CASRN_DTXSID>
46006-95-5

> <FORMULA_MAPPED_DTXSID>
C10H14N2

> <SMILES_MAPPED_DTXSID>
NCCN1CCC2=CC=CC=C12

> <MS_READY_SMILES>
NCCN1CCC2=CC=CC=C12

> <INCHI_STRING_DTXCID>
InChI=1S/C10H14N2/c11-6-8-12-7-5-9-3-1-2-4-10(9)12/h1-4H,5-8,11H2

> <INCHIKEY_DTXCID>
HNLHKBSAQALACU-UHFFFAOYSA-N

> <MONOISOTOPIC_MASS_DTXCID>
162.115698459

> <EXPOCAST_MEDIAN_EXPOSURE_PREDICTION_MG/KG-BW/DAY>
-

> <EXPOCAST>
0

> <NHANES>
0

> <DATA_SOURCES>
1

> <TOXVAL_DATA>
0

> <TOXCAST_PERCENT_ACTIVE>
-

> <TOXCAST_NUMBER_OF_ASSAYS/TOTAL>
-

> <NUMBER_OF_PUBMED_ARTICLES>
-

> <PUBCHEM_DATA_SOURCES>
46

> <CPDAT_COUNT>
-

> <ATMOSPHERIC_HYDROXYLATION_RATE_(AOH)_CM3/MOLECULE*SEC_OPERA_PRED>
1.84571e-11

> <BIOCONCENTRATION_FACTOR_OPERA_PRED>
6.2542

> <BIODEGRADATION_HALF_LIFE_DAYS_DAYS_OPERA_PRED>
3.49864

> <BOILING_POINT_DEGC_OPERA_PRED>
288.88

> <HENRYS_LAW_ATM-M3/MOLE_OPERA_PRED>
7.06039e-07

> <OPERA_KM_DAYS_OPERA_PRED>
0.0921945

> <OCTANOL_AIR_PARTITION_COEFF_LOGKOA_OPERA_PRED>
8.71193

> <SOIL_ADSORPTION_COEFFICIENT_KOC_L/KG_OPERA_PRED>
144.429

> <OCTANOL_WATER_PARTITION_LOGP_OPERA_PRED>
0.859527

> <MELTING_POINT_DEGC_OPERA_PRED>
97.1537

> <VAPOR_PRESSURE_MMHG_OPERA_PRED>
0.000150623

> <WATER_SOLUBILITY_MOL/L_OPERA_PRED>
0.0957978

> <TEST_BCF_TEST_PRED>
6.74528

> <BOILING_POINT_DEGC_TEST_PRED>
274.343

> <DENSITY_G/CM^3_TEST_PRED>
1.074

> <FLASH_POINT_DEGC_TEST_PRED>
149.512

> <MELTING_POINT_DEGC_TEST_PRED>
72.697

> <SURFACE_TENSION_DYN/CM_TEST_PRED>
-

> <THERMAL_CONDUCTIVITY_MW/(M*K)_TEST_PRED>
169.079

> <VISCOSITY_CP_CP_TEST_PRED>
4.75335

> <VAPOR_PRESSURE_MMHG_TEST_PRED>
0.00108893

> <WATER_SOLUBILITY_MOL/L_TEST_PRED>
0.031989

> <AEGLVALUES>
0

> <ALGALTOX>
0

> <ARCHEMICALS>
0

> <ATSDRLST>
0

> <BISPHENOLS>
0

> <OEHHA>
0

> <CERAPP>
0

> <FUNNAMES>
0

> <KWRSJERPS>
0

> <EPACONS>
0

> <IRIS>
0

> <EPAHFR>
0

> <EUCOSMETICS>
0

> <FRENCHLIST>
0

> <HEROMAP>
0

> <ITNANTIBIOTIC>
0

> <KEMIMARKET>
0

> <MASSBANKREF>
0

> <MASSBANKEUSP>
0

> <NEMILIST>
0

> <NATADB>
0

> <NIOSHIDLH>
0

> <NIOSHICSC>
0

> <NIOSHNPG>
0

> <NIOSHSKIN>
0

> <NORMANCT15>
0

> <SFISHFLUORO>
0

> <NORMANPRI>
0

> <NORMANEWS>
0

> <PFASTRIER>
0

> <SWISSPHARMA>
0

> <PPRTVWEB>
0

> <STOCKHOLM>
0

> <STOFFIDENT>
0

> <SCDM>
0

> <EAWAGSURF>
0

> <SWISSPEST>
0

> <TOX21SL>
0

> <TOXCAST>
0

> <TOXCAST_E1K>
0

> <TOXCAST_PH1V2>
0

> <TOXCAST_PH2>
0

> <TOXCAST_PH3>
0

> <TOXCAST_PHASEI>
0

> <TOXCAST_PHASEII>
0

> <TOXCAST_PHASEIII>
0

> <TRIRELEASE>
0

> <TSCASURF>
0

> <UJIBADE>
0

> <ATHENSSUS>
0

> <UATHTARGETS>
0

$$$$

  Mrv1533009301518352D          

  0  0  0     0  0            999 V3000
M  V30 BEGIN CTAB
M  V30 COUNTS 12 13 0 0 0
M  V30 BEGIN ATOM
M  V30 1 N 6.5744 1.6025 0 0
M  V30 2 N 3.9069 -3.0175 0 0
M  V30 3 C 7.3444 3.9725 0 0
M  V30 4 C 5.8044 3.9725 0 0
M  V30 5 C 7.8202 2.5079 0 0
M  V30 6 C 5.3286 2.5079 0 0
M  V30 7 C 6.5744 0.0625 0 0
M  V30 8 C 5.2407 -0.7075 0 0
M  V30 9 C 7.9081 -0.7075 0 0
M  V30 10 C 5.2407 -2.2475 0 0
M  V30 11 C 7.9081 -2.2475 0 0
M  V30 12 C 6.5744 -3.0175 0 0
M  V30 END ATOM
M  V30 BEGIN BOND
M  V30 1 1 1 5
M  V30 2 1 1 6
M  V30 3 1 1 7
M  V30 4 1 2 10
M  V30 5 1 3 4
M  V30 6 1 3 5
M  V30 7 1 4 6
M  V30 8 1 7 8
M  V30 9 2 7 9
M  V30 10 2 8 10
M  V30 11 1 9 11
M  V30 12 1 10 12
M  V30 13 2 11 12
M  V30 END BOND
M  V30 END CTAB
M  END

> <INPUT>
C10H14N2

> <FOUND_BY>
MS Ready Formula

> <DTXCID_INDIVIDUAL_COMPONENT>
DTXCID00315045

> <FORMULA_INDIVIDUAL_COMPONENT>
C10H14N2

> <SMILES_INDIVIDUAL_COMPONENT>
NC1=CC(=CC=C1)N1CCCC1

> <MAPPED_DTXSID>
DTXSID90363999

> <PREFERRED_NAME_DTXSID>
3-(pyrrolidin-1-yl)aniline

> <CASRN_DTXSID>
115833-93-7

> <FORMULA_MAPPED_DTXSID>
C10H14N2

> <SMILES_MAPPED_DTXSID>
NC1=CC(=CC=C1)N1CCCC1

> <MS_READY_SMILES>
NC1=CC(=CC=C1)N1CCCC1

> <INCHI_STRING_DTXCID>
InChI=1S/C10H14N2/c11-9-4-3-5-10(8-9)12-6-1-2-7-12/h3-5,8H,1-2,6-7,11H2

> <INCHIKEY_DTXCID>
DNPBFTQZONVQDX-UHFFFAOYSA-N

> <MONOISOTOPIC_MASS_DTXCID>
162.115698459

> <EXPOCAST_MEDIAN_EXPOSURE_PREDICTION_MG/KG-BW/DAY>
-

> <EXPOCAST>
0

> <NHANES>
0

> <DATA_SOURCES>
1

> <TOXVAL_DATA>
0

> <TOXCAST_PERCENT_ACTIVE>
-

> <TOXCAST_NUMBER_OF_ASSAYS/TOTAL>
-

> <NUMBER_OF_PUBMED_ARTICLES>
-

> <PUBCHEM_DATA_SOURCES>
67

> <CPDAT_COUNT>
-

> <ATMOSPHERIC_HYDROXYLATION_RATE_(AOH)_CM3/MOLECULE*SEC_OPERA_PRED>
2.62822e-11

> <BIOCONCENTRATION_FACTOR_OPERA_PRED>
7.46953

> <BIODEGRADATION_HALF_LIFE_DAYS_DAYS_OPERA_PRED>
2.94535

> <BOILING_POINT_DEGC_OPERA_PRED>
307.737

> <HENRYS_LAW_ATM-M3/MOLE_OPERA_PRED>
1.63661e-07

> <OPERA_KM_DAYS_OPERA_PRED>
0.370687

> <OCTANOL_AIR_PARTITION_COEFF_LOGKOA_OPERA_PRED>
8.76086

> <SOIL_ADSORPTION_COEFFICIENT_KOC_L/KG_OPERA_PRED>
175.269

> <OCTANOL_WATER_PARTITION_LOGP_OPERA_PRED>
1.09099

> <MELTING_POINT_DEGC_OPERA_PRED>
141.444

> <VAPOR_PRESSURE_MMHG_OPERA_PRED>
0.000101433

> <WATER_SOLUBILITY_MOL/L_OPERA_PRED>
0.244608

> <TEST_BCF_TEST_PRED>
14.3549

> <BOILING_POINT_DEGC_TEST_PRED>
279.002

> <DENSITY_G/CM^3_TEST_PRED>
1.089

> <FLASH_POINT_DEGC_TEST_PRED>
123.957

> <MELTING_POINT_DEGC_TEST_PRED>
39.695

> <SURFACE_TENSION_DYN/CM_TEST_PRED>
-

> <THERMAL_CONDUCTIVITY_MW/(M*K)_TEST_PRED>
166.044

> <VISCOSITY_CP_CP_TEST_PRED>
6.59174

> <VAPOR_PRESSURE_MMHG_TEST_PRED>
0.00104713

> <WATER_SOLUBILITY_MOL/L_TEST_PRED>
0.00801678

> <AEGLVALUES>
0

> <ALGALTOX>
0

> <ARCHEMICALS>
0

> <ATSDRLST>
0

> <BISPHENOLS>
0

> <OEHHA>
0

> <CERAPP>
0

> <FUNNAMES>
0

> <KWRSJERPS>
0

> <EPACONS>
0

> <IRIS>
0

> <EPAHFR>
0

> <EUCOSMETICS>
0

> <FRENCHLIST>
0

> <HEROMAP>
0

> <ITNANTIBIOTIC>
0

> <KEMIMARKET>
0

> <MASSBANKREF>
0

> <MASSBANKEUSP>
0

> <NEMILIST>
0

> <NATADB>
0

> <NIOSHIDLH>
0

> <NIOSHICSC>
0

> <NIOSHNPG>
0

> <NIOSHSKIN>
0

> <NORMANCT15>
0

> <SFISHFLUORO>
0

> <NORMANPRI>
0

> <NORMANEWS>
0

> <PFASTRIER>
0

> <SWISSPHARMA>
0

> <PPRTVWEB>
0

> <STOCKHOLM>
0

> <STOFFIDENT>
0

> <SCDM>
0

> <EAWAGSURF>
0

> <SWISSPEST>
0

> <TOX21SL>
0

> <TOXCAST>
0

> <TOXCAST_E1K>
0

> <TOXCAST_PH1V2>
0

> <TOXCAST_PH2>
0

> <TOXCAST_PH3>
0

> <TOXCAST_PHASEI>
0

> <TOXCAST_PHASEII>
0

> <TOXCAST_PHASEIII>
0

> <TRIRELEASE>
0

> <TSCASURF>
0

> <UJIBADE>
0

> <ATHENSSUS>
0

> <UATHTARGETS>
0

$$$$

  Mrv1533009301518392D          

  0  0  0     0  0            999 V3000
M  V30 BEGIN CTAB
M  V30 COUNTS 12 13 0 0 0
M  V30 BEGIN ATOM
M  V30 1 N 5.2407 -1.4743 0 0
M  V30 2 N 3.9067 -2.2443 0 0
M  V30 3 C 9.3462 0.8038 0 0
M  V30 4 C 9.3462 2.4078 0 0
M  V30 5 C 7.9509 0.0123 0 0
M  V30 6 C 7.9509 3.1991 0 0
M  V30 7 C 6.5742 0.8357 0 0
M  V30 8 C 6.5742 2.3757 0 0
M  V30 9 C 5.2407 0.0657 0 0
M  V30 10 C 5.2407 3.1457 0 0
M  V30 11 C 3.9067 0.8357 0 0
M  V30 12 C 3.9067 2.3757 0 0
M  V30 END ATOM
M  V30 BEGIN BOND
M  V30 1 1 1 2
M  V30 2 1 1 9
M  V30 3 1 3 4
M  V30 4 1 3 5
M  V30 5 1 4 6
M  V30 6 1 5 7
M  V30 7 1 6 8
M  V30 8 2 7 8
M  V30 9 1 7 9
M  V30 10 1 8 10
M  V30 11 2 9 11
M  V30 12 2 10 12
M  V30 13 1 11 12
M  V30 END BOND
M  V30 END CTAB
M  END

> <INPUT>
C10H14N2

> <FOUND_BY>
MS Ready Formula

> <DTXCID_INDIVIDUAL_COMPONENT>
DTXCID20328591

> <FORMULA_INDIVIDUAL_COMPONENT>
C10H14N2

> <SMILES_INDIVIDUAL_COMPONENT>
NNC1=CC=CC2=C1CCCC2

> <MAPPED_DTXSID>
DTXSID60377563

> <PREFERRED_NAME_DTXSID>
(5,6,7,8-Tetrahydronaphthalen-1-yl)hydrazine

> <CASRN_DTXSID>
85790-17-6

> <FORMULA_MAPPED_DTXSID>
C10H14N2

> <SMILES_MAPPED_DTXSID>
NNC1=CC=CC2=C1CCCC2

> <MS_READY_SMILES>
NNC1=CC=CC2=C1CCCC2

> <INCHI_STRING_DTXCID>
InChI=1S/C10H14N2/c11-12-10-7-3-5-8-4-1-2-6-9(8)10/h3,5,7,12H,1-2,4,6,11H2

> <INCHIKEY_DTXCID>
UFWAWZMOTPGQJU-UHFFFAOYSA-N

> <MONOISOTOPIC_MASS_DTXCID>
162.115698459

> <EXPOCAST_MEDIAN_EXPOSURE_PREDICTION_MG/KG-BW/DAY>
-

> <EXPOCAST>
0

> <NHANES>
0

> <DATA_SOURCES>
1

> <TOXVAL_DATA>
0

> <TOXCAST_PERCENT_ACTIVE>
-

> <TOXCAST_NUMBER_OF_ASSAYS/TOTAL>
-

> <NUMBER_OF_PUBMED_ARTICLES>
-

> <PUBCHEM_DATA_SOURCES>
22

> <CPDAT_COUNT>
-

> <ATMOSPHERIC_HYDROXYLATION_RATE_(AOH)_CM3/MOLECULE*SEC_OPERA_PRED>
2.1223e-11

> <BIOCONCENTRATION_FACTOR_OPERA_PRED>
10.5054

> <BIODEGRADATION_HALF_LIFE_DAYS_DAYS_OPERA_PRED>
6.21922

> <BOILING_POINT_DEGC_OPERA_PRED>
264.478

> <HENRYS_LAW_ATM-M3/MOLE_OPERA_PRED>
1.8228e-07

> <OPERA_KM_DAYS_OPERA_PRED>
0.167512

> <OCTANOL_AIR_PARTITION_COEFF_LOGKOA_OPERA_PRED>
7.92237

> <SOIL_ADSORPTION_COEFFICIENT_KOC_L/KG_OPERA_PRED>
107.712

> <OCTANOL_WATER_PARTITION_LOGP_OPERA_PRED>
2.15962

> <MELTING_POINT_DEGC_OPERA_PRED>
121.169

> <VAPOR_PRESSURE_MMHG_OPERA_PRED>
0.000667384

> <WATER_SOLUBILITY_MOL/L_OPERA_PRED>
0.00135352

> <TEST_BCF_TEST_PRED>
-

> <BOILING_POINT_DEGC_TEST_PRED>
-

> <DENSITY_G/CM^3_TEST_PRED>
1.186

> <FLASH_POINT_DEGC_TEST_PRED>
157.634

> <MELTING_POINT_DEGC_TEST_PRED>
104.492

> <SURFACE_TENSION_DYN/CM_TEST_PRED>
-

> <THERMAL_CONDUCTIVITY_MW/(M*K)_TEST_PRED>
-

> <VISCOSITY_CP_CP_TEST_PRED>
-

> <VAPOR_PRESSURE_MMHG_TEST_PRED>
0.00545758

> <WATER_SOLUBILITY_MOL/L_TEST_PRED>
0.0342768

> <AEGLVALUES>
0

> <ALGALTOX>
0

> <ARCHEMICALS>
0

> <ATSDRLST>
0

> <BISPHENOLS>
0

> <OEHHA>
0

> <CERAPP>
0

> <FUNNAMES>
0

> <KWRSJERPS>
0

> <EPACONS>
0

> <IRIS>
0

> <EPAHFR>
0

> <EUCOSMETICS>
0

> <FRENCHLIST>
0

> <HEROMAP>
0

> <ITNANTIBIOTIC>
0

> <KEMIMARKET>
0

> <MASSBANKREF>
0

> <MASSBANKEUSP>
0

> <NEMILIST>
0

> <NATADB>
0

> <NIOSHIDLH>
0

> <NIOSHICSC>
0

> <NIOSHNPG>
0

> <NIOSHSKIN>
0

> <NORMANCT15>
0

> <SFISHFLUORO>
0

> <NORMANPRI>
0

> <NORMANEWS>
0

> <PFASTRIER>
0

> <SWISSPHARMA>
0

> <PPRTVWEB>
0

> <STOCKHOLM>
0

> <STOFFIDENT>
0

> <SCDM>
0

> <EAWAGSURF>
0

> <SWISSPEST>
0

> <TOX21SL>
0

> <TOXCAST>
0

> <TOXCAST_E1K>
0

> <TOXCAST_PH1V2>
0

> <TOXCAST_PH2>
0

> <TOXCAST_PH3>
0

> <TOXCAST_PHASEI>
0

> <TOXCAST_PHASEII>
0

> <TOXCAST_PHASEIII>
0

> <TRIRELEASE>
0

> <TSCASURF>
0

> <UJIBADE>
0

> <ATHENSSUS>
0

> <UATHTARGETS>
0

$$$$

  Mrv1533009301518442D          

  0  0  0     0  0            999 V3000
M  V30 BEGIN CTAB
M  V30 COUNTS 12 12 0 0 0
M  V30 BEGIN ATOM
M  V30 1 N 7.0812 3.2263 0 0
M  V30 2 N 8.4149 0.9163 0 0
M  V30 3 C 5.7475 -0.6237 0 0
M  V30 4 C 4.4137 -1.3937 0 0
M  V30 5 C 5.7475 0.9163 0 0
M  V30 6 C 7.0812 -1.3937 0 0
M  V30 7 C 7.0812 -2.9338 0 0
M  V30 8 C 4.4137 -2.9338 0 0
M  V30 9 C 5.7475 -3.7038 0 0
M  V30 10 C 3.08 -0.6237 0 0
M  V30 11 C 7.0812 1.6863 0 0
M  V30 12 C 8.4149 -3.7038 0 0
M  V30 END ATOM
M  V30 BEGIN BOND
M  V30 1 1 1 11
M  V30 2 2 2 11
M  V30 3 2 3 4
M  V30 4 1 3 5
M  V30 5 1 3 6
M  V30 6 1 4 8
M  V30 7 1 4 10
M  V30 8 1 5 11
M  V30 9 2 6 7
M  V30 10 1 7 9
M  V30 11 1 7 12
M  V30 12 2 8 9
M  V30 END BOND
M  V30 END CTAB
M  END

> <INPUT>
C10H14N2

> <FOUND_BY>
MS Ready Formula

> <DTXCID_INDIVIDUAL_COMPONENT>
DTXCID90343478

> <FORMULA_INDIVIDUAL_COMPONENT>
C10H14N2

> <SMILES_INDIVIDUAL_COMPONENT>
CC1=CC(CC(N)=N)=C(C)C=C1

> <MAPPED_DTXSID>
DTXSID80392617

> <PREFERRED_NAME_DTXSID>
2-(2,5-dimethylphenyl)ethanimidamide

> <CASRN_DTXSID>
374064-83-2

> <FORMULA_MAPPED_DTXSID>
C10H14N2

> <SMILES_MAPPED_DTXSID>
CC1=CC(CC(N)=N)=C(C)C=C1

> <MS_READY_SMILES>
CC1=CC(CC(N)=N)=C(C)C=C1

> <INCHI_STRING_DTXCID>
InChI=1S/C10H14N2/c1-7-3-4-8(2)9(5-7)6-10(11)12/h3-5H,6H2,1-2H3,(H3,11,12)

> <INCHIKEY_DTXCID>
VLLICFQUTUMOSR-UHFFFAOYSA-N

> <MONOISOTOPIC_MASS_DTXCID>
162.115698459

> <EXPOCAST_MEDIAN_EXPOSURE_PREDICTION_MG/KG-BW/DAY>
-

> <EXPOCAST>
0

> <NHANES>
0

> <DATA_SOURCES>
1

> <TOXVAL_DATA>
0

> <TOXCAST_PERCENT_ACTIVE>
-

> <TOXCAST_NUMBER_OF_ASSAYS/TOTAL>
-

> <NUMBER_OF_PUBMED_ARTICLES>
-

> <PUBCHEM_DATA_SOURCES>
20

> <CPDAT_COUNT>
-

> <ATMOSPHERIC_HYDROXYLATION_RATE_(AOH)_CM3/MOLECULE*SEC_OPERA_PRED>
1.50775e-11

> <BIOCONCENTRATION_FACTOR_OPERA_PRED>
8.89108

> <BIODEGRADATION_HALF_LIFE_DAYS_DAYS_OPERA_PRED>
3.87065

> <BOILING_POINT_DEGC_OPERA_PRED>
303.929

> <HENRYS_LAW_ATM-M3/MOLE_OPERA_PRED>
1.58527e-07

> <OPERA_KM_DAYS_OPERA_PRED>
0.168308

> <OCTANOL_AIR_PARTITION_COEFF_LOGKOA_OPERA_PRED>
7.8497

> <SOIL_ADSORPTION_COEFFICIENT_KOC_L/KG_OPERA_PRED>
105.345

> <OCTANOL_WATER_PARTITION_LOGP_OPERA_PRED>
1.67054

> <MELTING_POINT_DEGC_OPERA_PRED>
162.156

> <VAPOR_PRESSURE_MMHG_OPERA_PRED>
0.00236483

> <WATER_SOLUBILITY_MOL/L_OPERA_PRED>
0.00377578

> <TEST_BCF_TEST_PRED>
-

> <BOILING_POINT_DEGC_TEST_PRED>
-

> <DENSITY_G/CM^3_TEST_PRED>
1.247

> <FLASH_POINT_DEGC_TEST_PRED>
134.134

> <MELTING_POINT_DEGC_TEST_PRED>
150.514

> <SURFACE_TENSION_DYN/CM_TEST_PRED>
-

> <THERMAL_CONDUCTIVITY_MW/(M*K)_TEST_PRED>
-

> <VISCOSITY_CP_CP_TEST_PRED>
-

> <VAPOR_PRESSURE_MMHG_TEST_PRED>
-

> <WATER_SOLUBILITY_MOL/L_TEST_PRED>
-

> <AEGLVALUES>
0

> <ALGALTOX>
0

> <ARCHEMICALS>
0

> <ATSDRLST>
0

> <BISPHENOLS>
0

> <OEHHA>
0

> <CERAPP>
0

> <FUNNAMES>
0

> <KWRSJERPS>
0

> <EPACONS>
0

> <IRIS>
0

> <EPAHFR>
0

> <EUCOSMETICS>
0

> <FRENCHLIST>
0

> <HEROMAP>
0

> <ITNANTIBIOTIC>
0

> <KEMIMARKET>
0

> <MASSBANKREF>
0

> <MASSBANKEUSP>
0

> <NEMILIST>
0

> <NATADB>
0

> <NIOSHIDLH>
0

> <NIOSHICSC>
0

> <NIOSHNPG>
0

> <NIOSHSKIN>
0

> <NORMANCT15>
0

> <SFISHFLUORO>
0

> <NORMANPRI>
0

> <NORMANEWS>
0

> <PFASTRIER>
0

> <SWISSPHARMA>
0

> <PPRTVWEB>
0

> <STOCKHOLM>
0

> <STOFFIDENT>
0

> <SCDM>
0

> <EAWAGSURF>
0

> <SWISSPEST>
0

> <TOX21SL>
0

> <TOXCAST>
0

> <TOXCAST_E1K>
0

> <TOXCAST_PH1V2>
0

> <TOXCAST_PH2>
0

> <TOXCAST_PH3>
0

> <TOXCAST_PHASEI>
0

> <TOXCAST_PHASEII>
0

> <TOXCAST_PHASEIII>
0

> <TRIRELEASE>
0

> <TSCASURF>
0

> <UJIBADE>
0

> <ATHENSSUS>
0

> <UATHTARGETS>
0

$$$$
343686
  Mrv1611109281615032D          

  0  0  0     0  0            999 V3000
M  V30 BEGIN CTAB
M  V30 COUNTS 12 13 0 0 0
M  V30 BEGIN ATOM
M  V30 1 N 2.024 -3.7942 0 0
M  V30 2 C 1.5482 -5.2588 0 0
M  V30 3 C 0.0082 -5.2588 0 0
M  V30 4 C -0.897 -6.5047 0 0
M  V30 5 C -0.4677 -3.7942 0 0
M  V30 6 C 0.7782 -2.889 0 0
M  V30 7 C 0.7782 -1.349 0 0
M  V30 8 C -0.5555 -0.579 0 0
M  V30 9 C -0.5555 0.961 0 0
M  V30 10 C 0.7782 1.731 0 0
M  V30 11 C 2.1118 0.961 0 0
M  V30 12 N 2.1118 -0.579 0 0
M  V30 END ATOM
M  V30 BEGIN BOND
M  V30 1 1 1 2
M  V30 2 1 2 3
M  V30 3 1 3 4
M  V30 4 1 3 5
M  V30 5 1 5 6
M  V30 6 1 6 1
M  V30 7 1 6 7
M  V30 8 2 7 8
M  V30 9 1 8 9
M  V30 10 2 9 10
M  V30 11 1 10 11
M  V30 12 2 11 12
M  V30 13 1 12 7
M  V30 END BOND
M  V30 END CTAB
M  END

> <INPUT>
C10H14N2

> <FOUND_BY>
MS Ready Formula

> <DTXCID_INDIVIDUAL_COMPONENT>
DTXCID30822257

> <FORMULA_INDIVIDUAL_COMPONENT>
C10H14N2

> <SMILES_INDIVIDUAL_COMPONENT>
CC1CNC(C1)C1=CC=CC=N1

> <MAPPED_DTXSID>
DTXSID90392825

> <PREFERRED_NAME_DTXSID>
2-(4-methylpyrrolidin-2-yl)pyridine

> <CASRN_DTXSID>
603089-88-9

> <FORMULA_MAPPED_DTXSID>
C10H14N2

> <SMILES_MAPPED_DTXSID>
CC1CNC(C1)C1=CC=CC=N1

> <MS_READY_SMILES>
CC1CNC(C1)C1=CC=CC=N1

> <INCHI_STRING_DTXCID>
InChI=1S/C10H14N2/c1-8-6-10(12-7-8)9-4-2-3-5-11-9/h2-5,8,10,12H,6-7H2,1H3

> <INCHIKEY_DTXCID>
VWDIKMSZQOMQLZ-UHFFFAOYSA-N

> <MONOISOTOPIC_MASS_DTXCID>
162.115698459

> <EXPOCAST_MEDIAN_EXPOSURE_PREDICTION_MG/KG-BW/DAY>
-

> <EXPOCAST>
0

> <NHANES>
0

> <DATA_SOURCES>
1

> <TOXVAL_DATA>
0

> <TOXCAST_PERCENT_ACTIVE>
-

> <TOXCAST_NUMBER_OF_ASSAYS/TOTAL>
-

> <NUMBER_OF_PUBMED_ARTICLES>
-

> <PUBCHEM_DATA_SOURCES>
13

> <CPDAT_COUNT>
-

> <ATMOSPHERIC_HYDROXYLATION_RATE_(AOH)_CM3/MOLECULE*SEC_OPERA_PRED>
1.97614e-11

> <BIOCONCENTRATION_FACTOR_OPERA_PRED>
10.2606

> <BIODEGRADATION_HALF_LIFE_DAYS_DAYS_OPERA_PRED>
3.16582

> <BOILING_POINT_DEGC_OPERA_PRED>
282.626

> <HENRYS_LAW_ATM-M3/MOLE_OPERA_PRED>
2.82096e-07

> <OPERA_KM_DAYS_OPERA_PRED>
0.469745

> <OCTANOL_AIR_PARTITION_COEFF_LOGKOA_OPERA_PRED>
7.73009

> <SOIL_ADSORPTION_COEFFICIENT_KOC_L/KG_OPERA_PRED>
151.771

> <OCTANOL_WATER_PARTITION_LOGP_OPERA_PRED>
0.905256

> <MELTING_POINT_DEGC_OPERA_PRED>
87.1339

> <VAPOR_PRESSURE_MMHG_OPERA_PRED>
0.0119581

> <WATER_SOLUBILITY_MOL/L_OPERA_PRED>
0.420857

> <TEST_BCF_TEST_PRED>
16.9824

> <BOILING_POINT_DEGC_TEST_PRED>
262.703

> <DENSITY_G/CM^3_TEST_PRED>
1.034

> <FLASH_POINT_DEGC_TEST_PRED>
109.697

> <MELTING_POINT_DEGC_TEST_PRED>
28.094

> <SURFACE_TENSION_DYN/CM_TEST_PRED>
37.517

> <THERMAL_CONDUCTIVITY_MW/(M*K)_TEST_PRED>
144.91

> <VISCOSITY_CP_CP_TEST_PRED>
13.8676

> <VAPOR_PRESSURE_MMHG_TEST_PRED>
0.00256448

> <WATER_SOLUBILITY_MOL/L_TEST_PRED>
0.0580764

> <AEGLVALUES>
0

> <ALGALTOX>
0

> <ARCHEMICALS>
0

> <ATSDRLST>
0

> <BISPHENOLS>
0

> <OEHHA>
0

> <CERAPP>
0

> <FUNNAMES>
0

> <KWRSJERPS>
0

> <EPACONS>
0

> <IRIS>
0

> <EPAHFR>
0

> <EUCOSMETICS>
0

> <FRENCHLIST>
0

> <HEROMAP>
0

> <ITNANTIBIOTIC>
0

> <KEMIMARKET>
0

> <MASSBANKREF>
0

> <MASSBANKEUSP>
0

> <NEMILIST>
0

> <NATADB>
0

> <NIOSHIDLH>
0

> <NIOSHICSC>
0

> <NIOSHNPG>
0

> <NIOSHSKIN>
0

> <NORMANCT15>
0

> <SFISHFLUORO>
0

> <NORMANPRI>
0

> <NORMANEWS>
0

> <PFASTRIER>
0

> <SWISSPHARMA>
0

> <PPRTVWEB>
0

> <STOCKHOLM>
0

> <STOFFIDENT>
0

> <SCDM>
0

> <EAWAGSURF>
0

> <SWISSPEST>
0

> <TOX21SL>
0

> <TOXCAST>
0

> <TOXCAST_E1K>
0

> <TOXCAST_PH1V2>
0

> <TOXCAST_PH2>
0

> <TOXCAST_PH3>
0

> <TOXCAST_PHASEI>
0

> <TOXCAST_PHASEII>
0

> <TOXCAST_PHASEIII>
0

> <TRIRELEASE>
0

> <TSCASURF>
0

> <UJIBADE>
0

> <ATHENSSUS>
0

> <UATHTARGETS>
0

$$$$

  Mrv1533009301518452D          

  0  0  0     0  0            999 V3000
M  V30 BEGIN CTAB
M  V30 COUNTS 12 12 0 0 0
M  V30 BEGIN ATOM
M  V30 1 N 7.0812 3.2263 0 0
M  V30 2 N 8.4149 0.9163 0 0
M  V30 3 C 5.7475 -0.6237 0 0
M  V30 4 C 7.0812 -2.9338 0 0
M  V30 5 C 4.4137 -2.9338 0 0
M  V30 6 C 5.7475 0.9163 0 0
M  V30 7 C 4.4137 -1.3937 0 0
M  V30 8 C 7.0812 -1.3937 0 0
M  V30 9 C 5.7475 -3.7038 0 0
M  V30 10 C 8.4149 -3.7038 0 0
M  V30 11 C 3.08 -3.7038 0 0
M  V30 12 C 7.0812 1.6863 0 0
M  V30 END ATOM
M  V30 BEGIN BOND
M  V30 1 1 1 12
M  V30 2 2 2 12
M  V30 3 1 3 6
M  V30 4 2 3 7
M  V30 5 1 3 8
M  V30 6 2 4 8
M  V30 7 1 4 9
M  V30 8 1 4 10
M  V30 9 1 5 7
M  V30 10 2 5 9
M  V30 11 1 5 11
M  V30 12 1 6 12
M  V30 END BOND
M  V30 END CTAB
M  END

> <INPUT>
C10H14N2

> <FOUND_BY>
MS Ready Formula

> <DTXCID_INDIVIDUAL_COMPONENT>
DTXCID60344437

> <FORMULA_INDIVIDUAL_COMPONENT>
C10H14N2

> <SMILES_INDIVIDUAL_COMPONENT>
CC1=CC(CC(N)=N)=CC(C)=C1

> <MAPPED_DTXSID>
DTXSID70393577

> <PREFERRED_NAME_DTXSID>
2-(3,5-dimethylphenyl)ethanimidamide

> <CASRN_DTXSID>
374064-84-3

> <FORMULA_MAPPED_DTXSID>
C10H14N2

> <SMILES_MAPPED_DTXSID>
CC1=CC(CC(N)=N)=CC(C)=C1

> <MS_READY_SMILES>
CC1=CC(CC(N)=N)=CC(C)=C1

> <INCHI_STRING_DTXCID>
InChI=1S/C10H14N2/c1-7-3-8(2)5-9(4-7)6-10(11)12/h3-5H,6H2,1-2H3,(H3,11,12)

> <INCHIKEY_DTXCID>
PJVBSBPSXZOUEQ-UHFFFAOYSA-N

> <MONOISOTOPIC_MASS_DTXCID>
162.115698459

> <EXPOCAST_MEDIAN_EXPOSURE_PREDICTION_MG/KG-BW/DAY>
-

> <EXPOCAST>
0

> <NHANES>
0

> <DATA_SOURCES>
1

> <TOXVAL_DATA>
0

> <TOXCAST_PERCENT_ACTIVE>
-

> <TOXCAST_NUMBER_OF_ASSAYS/TOTAL>
-

> <NUMBER_OF_PUBMED_ARTICLES>
-

> <PUBCHEM_DATA_SOURCES>
16

> <CPDAT_COUNT>
-

> <ATMOSPHERIC_HYDROXYLATION_RATE_(AOH)_CM3/MOLECULE*SEC_OPERA_PRED>
1.50835e-11

> <BIOCONCENTRATION_FACTOR_OPERA_PRED>
14.1972

> <BIODEGRADATION_HALF_LIFE_DAYS_DAYS_OPERA_PRED>
4.00494

> <BOILING_POINT_DEGC_OPERA_PRED>
303.94

> <HENRYS_LAW_ATM-M3/MOLE_OPERA_PRED>
1.59498e-07

> <OPERA_KM_DAYS_OPERA_PRED>
0.167967

> <OCTANOL_AIR_PARTITION_COEFF_LOGKOA_OPERA_PRED>
7.8497

> <SOIL_ADSORPTION_COEFFICIENT_KOC_L/KG_OPERA_PRED>
104.525

> <OCTANOL_WATER_PARTITION_LOGP_OPERA_PRED>
1.6696

> <MELTING_POINT_DEGC_OPERA_PRED>
172.883

> <VAPOR_PRESSURE_MMHG_OPERA_PRED>
0.00235374

> <WATER_SOLUBILITY_MOL/L_OPERA_PRED>
0.0037864

> <TEST_BCF_TEST_PRED>
-

> <BOILING_POINT_DEGC_TEST_PRED>
-

> <DENSITY_G/CM^3_TEST_PRED>
1.247

> <FLASH_POINT_DEGC_TEST_PRED>
134.787

> <MELTING_POINT_DEGC_TEST_PRED>
150.263

> <SURFACE_TENSION_DYN/CM_TEST_PRED>
-

> <THERMAL_CONDUCTIVITY_MW/(M*K)_TEST_PRED>
-

> <VISCOSITY_CP_CP_TEST_PRED>
-

> <VAPOR_PRESSURE_MMHG_TEST_PRED>
-

> <WATER_SOLUBILITY_MOL/L_TEST_PRED>
-

> <AEGLVALUES>
0

> <ALGALTOX>
0

> <ARCHEMICALS>
0

> <ATSDRLST>
0

> <BISPHENOLS>
0

> <OEHHA>
0

> <CERAPP>
0

> <FUNNAMES>
0

> <KWRSJERPS>
0

> <EPACONS>
0

> <IRIS>
0

> <EPAHFR>
0

> <EUCOSMETICS>
0

> <FRENCHLIST>
0

> <HEROMAP>
0

> <ITNANTIBIOTIC>
0

> <KEMIMARKET>
0

> <MASSBANKREF>
0

> <MASSBANKEUSP>
0

> <NEMILIST>
0

> <NATADB>
0

> <NIOSHIDLH>
0

> <NIOSHICSC>
0

> <NIOSHNPG>
0

> <NIOSHSKIN>
0

> <NORMANCT15>
0

> <SFISHFLUORO>
0

> <NORMANPRI>
0

> <NORMANEWS>
0

> <PFASTRIER>
0

> <SWISSPHARMA>
0

> <PPRTVWEB>
0

> <STOCKHOLM>
0

> <STOFFIDENT>
0

> <SCDM>
0

> <EAWAGSURF>
0

> <SWISSPEST>
0

> <TOX21SL>
0

> <TOXCAST>
0

> <TOXCAST_E1K>
0

> <TOXCAST_PH1V2>
0

> <TOXCAST_PH2>
0

> <TOXCAST_PH3>
0

> <TOXCAST_PHASEI>
0

> <TOXCAST_PHASEII>
0

> <TOXCAST_PHASEIII>
0

> <TRIRELEASE>
0

> <TSCASURF>
0

> <UJIBADE>
0

> <ATHENSSUS>
0

> <UATHTARGETS>
0

$$$$

  Mrv1533009301518482D          

  0  0  0     0  0            999 V3000
M  V30 BEGIN CTAB
M  V30 COUNTS 12 13 0 0 0
M  V30 BEGIN ATOM
M  V30 1 N 4.4137 -3.3727 0 0
M  V30 2 N 3.08 3.5575 0 0
M  V30 3 C 4.4137 -0.2927 0 0
M  V30 4 C 3.08 -1.0627 0 0
M  V30 5 C 5.7475 -1.0627 0 0
M  V30 6 C 3.08 -2.6027 0 0
M  V30 7 C 5.7475 -2.6027 0 0
M  V30 8 C 4.4137 1.2475 0 0
M  V30 9 C 5.7475 2.0175 0 0
M  V30 10 C 3.08 2.0175 0 0
M  V30 11 C 5.7475 3.5575 0 0
M  V30 12 C 4.4137 4.3275 0 0
M  V30 END ATOM
M  V30 BEGIN BOND
M  V30 1 1 1 6
M  V30 2 1 1 7
M  V30 3 1 2 10
M  V30 4 2 2 12
M  V30 5 1 3 4
M  V30 6 1 3 5
M  V30 7 1 3 8
M  V30 8 1 4 6
M  V30 9 1 5 7
M  V30 10 1 8 9
M  V30 11 2 8 10
M  V30 12 2 9 11
M  V30 13 1 11 12
M  V30 END BOND
M  V30 END CTAB
M  END

> <INPUT>
C10H14N2

> <FOUND_BY>
MS Ready Formula

> <DTXCID_INDIVIDUAL_COMPONENT>
DTXCID20356455

> <FORMULA_INDIVIDUAL_COMPONENT>
C10H14N2

> <SMILES_INDIVIDUAL_COMPONENT>
C1CC(CCN1)C1=CN=CC=C1

> <MAPPED_DTXSID>
DTXSID50405602

> <PREFERRED_NAME_DTXSID>
3-(Piperidin-4-yl)pyridine

> <CASRN_DTXSID>
161609-89-8

> <FORMULA_MAPPED_DTXSID>
C10H14N2

> <SMILES_MAPPED_DTXSID>
C1CC(CCN1)C1=CN=CC=C1

> <MS_READY_SMILES>
C1CC(CCN1)C1=CN=CC=C1

> <INCHI_STRING_DTXCID>
InChI=1S/C10H14N2/c1-2-10(8-12-5-1)9-3-6-11-7-4-9/h1-2,5,8-9,11H,3-4,6-7H2

> <INCHIKEY_DTXCID>
BRBPGGIIQVBPSB-UHFFFAOYSA-N

> <MONOISOTOPIC_MASS_DTXCID>
162.115698459

> <EXPOCAST_MEDIAN_EXPOSURE_PREDICTION_MG/KG-BW/DAY>
-

> <EXPOCAST>
0

> <NHANES>
0

> <DATA_SOURCES>
1

> <TOXVAL_DATA>
0

> <TOXCAST_PERCENT_ACTIVE>
-

> <TOXCAST_NUMBER_OF_ASSAYS/TOTAL>
-

> <NUMBER_OF_PUBMED_ARTICLES>
-

> <PUBCHEM_DATA_SOURCES>
33

> <CPDAT_COUNT>
-

> <ATMOSPHERIC_HYDROXYLATION_RATE_(AOH)_CM3/MOLECULE*SEC_OPERA_PRED>
4.36816e-11

> <BIOCONCENTRATION_FACTOR_OPERA_PRED>
8.90381

> <BIODEGRADATION_HALF_LIFE_DAYS_DAYS_OPERA_PRED>
2.92759

> <BOILING_POINT_DEGC_OPERA_PRED>
281.148

> <HENRYS_LAW_ATM-M3/MOLE_OPERA_PRED>
2.83456e-07

> <OPERA_KM_DAYS_OPERA_PRED>
0.233144

> <OCTANOL_AIR_PARTITION_COEFF_LOGKOA_OPERA_PRED>
8.36352

> <SOIL_ADSORPTION_COEFFICIENT_KOC_L/KG_OPERA_PRED>
144.29

> <OCTANOL_WATER_PARTITION_LOGP_OPERA_PRED>
0.906395

> <MELTING_POINT_DEGC_OPERA_PRED>
67.8946

> <VAPOR_PRESSURE_MMHG_OPERA_PRED>
0.0118969

> <WATER_SOLUBILITY_MOL/L_OPERA_PRED>
1.02789

> <TEST_BCF_TEST_PRED>
4.70977

> <BOILING_POINT_DEGC_TEST_PRED>
259.24

> <DENSITY_G/CM^3_TEST_PRED>
1.038

> <FLASH_POINT_DEGC_TEST_PRED>
119.624

> <MELTING_POINT_DEGC_TEST_PRED>
58.245

> <SURFACE_TENSION_DYN/CM_TEST_PRED>
37.897

> <THERMAL_CONDUCTIVITY_MW/(M*K)_TEST_PRED>
149.247

> <VISCOSITY_CP_CP_TEST_PRED>
13.0017

> <VAPOR_PRESSURE_MMHG_TEST_PRED>
0.00163682

> <WATER_SOLUBILITY_MOL/L_TEST_PRED>
0.0245471

> <AEGLVALUES>
0

> <ALGALTOX>
0

> <ARCHEMICALS>
0

> <ATSDRLST>
0

> <BISPHENOLS>
0

> <OEHHA>
0

> <CERAPP>
0

> <FUNNAMES>
0

> <KWRSJERPS>
0

> <EPACONS>
0

> <IRIS>
0

> <EPAHFR>
0

> <EUCOSMETICS>
0

> <FRENCHLIST>
0

> <HEROMAP>
0

> <ITNANTIBIOTIC>
0

> <KEMIMARKET>
0

> <MASSBANKREF>
0

> <MASSBANKEUSP>
0

> <NEMILIST>
0

> <NATADB>
0

> <NIOSHIDLH>
0

> <NIOSHICSC>
0

> <NIOSHNPG>
0

> <NIOSHSKIN>
0

> <NORMANCT15>
0

> <SFISHFLUORO>
0

> <NORMANPRI>
0

> <NORMANEWS>
0

> <PFASTRIER>
0

> <SWISSPHARMA>
0

> <PPRTVWEB>
0

> <STOCKHOLM>
0

> <STOFFIDENT>
0

> <SCDM>
0

> <EAWAGSURF>
0

> <SWISSPEST>
0

> <TOX21SL>
0

> <TOXCAST>
0

> <TOXCAST_E1K>
0

> <TOXCAST_PH1V2>
0

> <TOXCAST_PH2>
0

> <TOXCAST_PH3>
0

> <TOXCAST_PHASEI>
0

> <TOXCAST_PHASEII>
0

> <TOXCAST_PHASEIII>
0

> <TRIRELEASE>
0

> <TSCASURF>
0

> <UJIBADE>
0

> <ATHENSSUS>
0

> <UATHTARGETS>
0

$$$$

  Mrv1533009301518492D          

  0  0  0     0  0            999 V3000
M  V30 BEGIN CTAB
M  V30 COUNTS 12 12 0 0 0
M  V30 BEGIN ATOM
M  V30 1 N 7.081 3.9963 0 0
M  V30 2 N 8.4147 1.6863 0 0
M  V30 3 C 5.7473 0.1463 0 0
M  V30 4 C 4.4137 -0.6237 0 0
M  V30 5 C 5.7473 1.6863 0 0
M  V30 6 C 5.7473 -2.9337 0 0
M  V30 7 C 4.4137 -2.1637 0 0
M  V30 8 C 7.081 -0.6237 0 0
M  V30 9 C 7.081 -2.1637 0 0
M  V30 10 C 3.08 0.1463 0 0
M  V30 11 C 7.081 2.4563 0 0
M  V30 12 C 5.7473 -4.4737 0 0
M  V30 END ATOM
M  V30 BEGIN BOND
M  V30 1 1 1 11
M  V30 2 2 2 11
M  V30 3 2 3 4
M  V30 4 1 3 5
M  V30 5 1 3 8
M  V30 6 1 4 7
M  V30 7 1 4 10
M  V30 8 1 5 11
M  V30 9 2 6 7
M  V30 10 1 6 9
M  V30 11 1 6 12
M  V30 12 2 8 9
M  V30 END BOND
M  V30 END CTAB
M  END

> <INPUT>
C10H14N2

> <FOUND_BY>
MS Ready Formula

> <DTXCID_INDIVIDUAL_COMPONENT>
DTXCID40358239

> <FORMULA_INDIVIDUAL_COMPONENT>
C10H14N2

> <SMILES_INDIVIDUAL_COMPONENT>
CC1=CC(C)=C(CC(N)=N)C=C1

> <MAPPED_DTXSID>
DTXSID90407387

> <PREFERRED_NAME_DTXSID>
2-(2,4-dimethylphenyl)ethanimidamide

> <CASRN_DTXSID>
802269-53-0

> <FORMULA_MAPPED_DTXSID>
C10H14N2

> <SMILES_MAPPED_DTXSID>
CC1=CC(C)=C(CC(N)=N)C=C1

> <MS_READY_SMILES>
CC1=CC(C)=C(CC(N)=N)C=C1

> <INCHI_STRING_DTXCID>
InChI=1S/C10H14N2/c1-7-3-4-9(6-10(11)12)8(2)5-7/h3-5H,6H2,1-2H3,(H3,11,12)

> <INCHIKEY_DTXCID>
CBGUKTNAZXFTFR-UHFFFAOYSA-N

> <MONOISOTOPIC_MASS_DTXCID>
162.115698459

> <EXPOCAST_MEDIAN_EXPOSURE_PREDICTION_MG/KG-BW/DAY>
-

> <EXPOCAST>
0

> <NHANES>
0

> <DATA_SOURCES>
1

> <TOXVAL_DATA>
0

> <TOXCAST_PERCENT_ACTIVE>
-

> <TOXCAST_NUMBER_OF_ASSAYS/TOTAL>
-

> <NUMBER_OF_PUBMED_ARTICLES>
-

> <PUBCHEM_DATA_SOURCES>
20

> <CPDAT_COUNT>
-

> <ATMOSPHERIC_HYDROXYLATION_RATE_(AOH)_CM3/MOLECULE*SEC_OPERA_PRED>
1.50828e-11

> <BIOCONCENTRATION_FACTOR_OPERA_PRED>
8.89108

> <BIODEGRADATION_HALF_LIFE_DAYS_DAYS_OPERA_PRED>
3.87694

> <BOILING_POINT_DEGC_OPERA_PRED>
303.936

> <HENRYS_LAW_ATM-M3/MOLE_OPERA_PRED>
1.59376e-07

> <OPERA_KM_DAYS_OPERA_PRED>
0.348421

> <OCTANOL_AIR_PARTITION_COEFF_LOGKOA_OPERA_PRED>
7.8497

> <SOIL_ADSORPTION_COEFFICIENT_KOC_L/KG_OPERA_PRED>
125.692

> <OCTANOL_WATER_PARTITION_LOGP_OPERA_PRED>
1.67039

> <MELTING_POINT_DEGC_OPERA_PRED>
162.125

> <VAPOR_PRESSURE_MMHG_OPERA_PRED>
0.00236535

> <WATER_SOLUBILITY_MOL/L_OPERA_PRED>
0.00378257

> <TEST_BCF_TEST_PRED>
-

> <BOILING_POINT_DEGC_TEST_PRED>
-

> <DENSITY_G/CM^3_TEST_PRED>
1.247

> <FLASH_POINT_DEGC_TEST_PRED>
134.059

> <MELTING_POINT_DEGC_TEST_PRED>
150.48

> <SURFACE_TENSION_DYN/CM_TEST_PRED>
-

> <THERMAL_CONDUCTIVITY_MW/(M*K)_TEST_PRED>
-

> <VISCOSITY_CP_CP_TEST_PRED>
-

> <VAPOR_PRESSURE_MMHG_TEST_PRED>
-

> <WATER_SOLUBILITY_MOL/L_TEST_PRED>
-

> <AEGLVALUES>
0

> <ALGALTOX>
0

> <ARCHEMICALS>
0

> <ATSDRLST>
0

> <BISPHENOLS>
0

> <OEHHA>
0

> <CERAPP>
0

> <FUNNAMES>
0

> <KWRSJERPS>
0

> <EPACONS>
0

> <IRIS>
0

> <EPAHFR>
0

> <EUCOSMETICS>
0

> <FRENCHLIST>
0

> <HEROMAP>
0

> <ITNANTIBIOTIC>
0

> <KEMIMARKET>
0

> <MASSBANKREF>
0

> <MASSBANKEUSP>
0

> <NEMILIST>
0

> <NATADB>
0

> <NIOSHIDLH>
0

> <NIOSHICSC>
0

> <NIOSHNPG>
0

> <NIOSHSKIN>
0

> <NORMANCT15>
0

> <SFISHFLUORO>
0

> <NORMANPRI>
0

> <NORMANEWS>
0

> <PFASTRIER>
0

> <SWISSPHARMA>
0

> <PPRTVWEB>
0

> <STOCKHOLM>
0

> <STOFFIDENT>
0

> <SCDM>
0

> <EAWAGSURF>
0

> <SWISSPEST>
0

> <TOX21SL>
0

> <TOXCAST>
0

> <TOXCAST_E1K>
0

> <TOXCAST_PH1V2>
0

> <TOXCAST_PH2>
0

> <TOXCAST_PH3>
0

> <TOXCAST_PHASEI>
0

> <TOXCAST_PHASEII>
0

> <TOXCAST_PHASEIII>
0

> <TRIRELEASE>
0

> <TSCASURF>
0

> <UJIBADE>
0

> <ATHENSSUS>
0

> <UATHTARGETS>
0

$$$$

  Mrv1533009301518492D          

  0  0  0     0  0            999 V3000
M  V30 BEGIN CTAB
M  V30 COUNTS 12 12 0 0 0
M  V30 BEGIN ATOM
M  V30 1 N 7.0812 3.2263 0 0
M  V30 2 N 8.4149 0.9163 0 0
M  V30 3 C 5.7475 -0.6237 0 0
M  V30 4 C 4.4137 -1.3937 0 0
M  V30 5 C 7.0812 -1.3937 0 0
M  V30 6 C 5.7475 0.9163 0 0
M  V30 7 C 4.4137 -2.9338 0 0
M  V30 8 C 7.0812 -2.9338 0 0
M  V30 9 C 3.08 -0.6237 0 0
M  V30 10 C 8.4149 -0.6237 0 0
M  V30 11 C 5.7475 -3.7038 0 0
M  V30 12 C 7.0812 1.6863 0 0
M  V30 END ATOM
M  V30 BEGIN BOND
M  V30 1 1 1 12
M  V30 2 2 2 12
M  V30 3 2 3 4
M  V30 4 1 3 5
M  V30 5 1 3 6
M  V30 6 1 4 7
M  V30 7 1 4 9
M  V30 8 2 5 8
M  V30 9 1 5 10
M  V30 10 1 6 12
M  V30 11 2 7 11
M  V30 12 1 8 11
M  V30 END BOND
M  V30 END CTAB
M  END

> <INPUT>
C10H14N2

> <FOUND_BY>
MS Ready Formula

> <DTXCID_INDIVIDUAL_COMPONENT>
DTXCID70359032

> <FORMULA_INDIVIDUAL_COMPONENT>
C10H14N2

> <SMILES_INDIVIDUAL_COMPONENT>
CC1=CC=CC(C)=C1CC(N)=N

> <MAPPED_DTXSID>
DTXSID20408180

> <PREFERRED_NAME_DTXSID>
2-(2,6-dimethylphenyl)ethanimidamide

> <CASRN_DTXSID>
374064-82-1

> <FORMULA_MAPPED_DTXSID>
C10H14N2

> <SMILES_MAPPED_DTXSID>
CC1=CC=CC(C)=C1CC(N)=N

> <MS_READY_SMILES>
CC1=CC=CC(C)=C1CC(N)=N

> <INCHI_STRING_DTXCID>
InChI=1S/C10H14N2/c1-7-4-3-5-8(2)9(7)6-10(11)12/h3-5H,6H2,1-2H3,(H3,11,12)

> <INCHIKEY_DTXCID>
GKBVDCZWZFBZIE-UHFFFAOYSA-N

> <MONOISOTOPIC_MASS_DTXCID>
162.115698459

> <EXPOCAST_MEDIAN_EXPOSURE_PREDICTION_MG/KG-BW/DAY>
-

> <EXPOCAST>
0

> <NHANES>
0

> <DATA_SOURCES>
1

> <TOXVAL_DATA>
0

> <TOXCAST_PERCENT_ACTIVE>
-

> <TOXCAST_NUMBER_OF_ASSAYS/TOTAL>
-

> <NUMBER_OF_PUBMED_ARTICLES>
-

> <PUBCHEM_DATA_SOURCES>
17

> <CPDAT_COUNT>
-

> <ATMOSPHERIC_HYDROXYLATION_RATE_(AOH)_CM3/MOLECULE*SEC_OPERA_PRED>
1.50716e-11

> <BIOCONCENTRATION_FACTOR_OPERA_PRED>
8.80574

> <BIODEGRADATION_HALF_LIFE_DAYS_DAYS_OPERA_PRED>
3.87288

> <BOILING_POINT_DEGC_OPERA_PRED>
303.918

> <HENRYS_LAW_ATM-M3/MOLE_OPERA_PRED>
1.56952e-07

> <OPERA_KM_DAYS_OPERA_PRED>
0.168868

> <OCTANOL_AIR_PARTITION_COEFF_LOGKOA_OPERA_PRED>
7.8497

> <SOIL_ADSORPTION_COEFFICIENT_KOC_L/KG_OPERA_PRED>
106.12

> <OCTANOL_WATER_PARTITION_LOGP_OPERA_PRED>
1.67278

> <MELTING_POINT_DEGC_OPERA_PRED>
162.203

> <VAPOR_PRESSURE_MMHG_OPERA_PRED>
0.00243181

> <WATER_SOLUBILITY_MOL/L_OPERA_PRED>
0.00376537

> <TEST_BCF_TEST_PRED>
-

> <BOILING_POINT_DEGC_TEST_PRED>
-

> <DENSITY_G/CM^3_TEST_PRED>
1.247

> <FLASH_POINT_DEGC_TEST_PRED>
135.007

> <MELTING_POINT_DEGC_TEST_PRED>
150.926

> <SURFACE_TENSION_DYN/CM_TEST_PRED>
-

> <THERMAL_CONDUCTIVITY_MW/(M*K)_TEST_PRED>
-

> <VISCOSITY_CP_CP_TEST_PRED>
-

> <VAPOR_PRESSURE_MMHG_TEST_PRED>
-

> <WATER_SOLUBILITY_MOL/L_TEST_PRED>
-

> <AEGLVALUES>
0

> <ALGALTOX>
0

> <ARCHEMICALS>
0

> <ATSDRLST>
0

> <BISPHENOLS>
0

> <OEHHA>
0

> <CERAPP>
0

> <FUNNAMES>
0

> <KWRSJERPS>
0

> <EPACONS>
0

> <IRIS>
0

> <EPAHFR>
0

> <EUCOSMETICS>
0

> <FRENCHLIST>
0

> <HEROMAP>
0

> <ITNANTIBIOTIC>
0

> <KEMIMARKET>
0

> <MASSBANKREF>
0

> <MASSBANKEUSP>
0

> <NEMILIST>
0

> <NATADB>
0

> <NIOSHIDLH>
0

> <NIOSHICSC>
0

> <NIOSHNPG>
0

> <NIOSHSKIN>
0

> <NORMANCT15>
0

> <SFISHFLUORO>
0

> <NORMANPRI>
0

> <NORMANEWS>
0

> <PFASTRIER>
0

> <SWISSPHARMA>
0

> <PPRTVWEB>
0

> <STOCKHOLM>
0

> <STOFFIDENT>
0

> <SCDM>
0

> <EAWAGSURF>
0

> <SWISSPEST>
0

> <TOX21SL>
0

> <TOXCAST>
0

> <TOXCAST_E1K>
0

> <TOXCAST_PH1V2>
0

> <TOXCAST_PH2>
0

> <TOXCAST_PH3>
0

> <TOXCAST_PHASEI>
0

> <TOXCAST_PHASEII>
0

> <TOXCAST_PHASEIII>
0

> <TRIRELEASE>
0

> <TSCASURF>
0

> <UJIBADE>
0

> <ATHENSSUS>
0

> <UATHTARGETS>
0

$$$$

  Mrv1533009301518552D          

  0  0  0     0  0            999 V3000
M  V30 BEGIN CTAB
M  V30 COUNTS 12 12 0 0 0
M  V30 BEGIN ATOM
M  V30 1 N 5.7475 3.3727 0 0
M  V30 2 N 3.08 3.3727 0 0
M  V30 3 C 4.4137 -3.5575 0 0
M  V30 4 C 4.4137 -2.0175 0 0
M  V30 5 C 3.08 -4.3275 0 0
M  V30 6 C 5.7475 -4.3275 0 0
M  V30 7 C 5.7475 -1.2475 0 0
M  V30 8 C 3.08 -1.2475 0 0
M  V30 9 C 4.4137 1.0627 0 0
M  V30 10 C 5.7475 0.2927 0 0
M  V30 11 C 3.08 0.2927 0 0
M  V30 12 C 4.4137 2.6027 0 0
M  V30 END ATOM
M  V30 BEGIN BOND
M  V30 1 1 1 12
M  V30 2 2 2 12
M  V30 3 1 3 4
M  V30 4 1 3 5
M  V30 5 1 3 6
M  V30 6 2 4 7
M  V30 7 1 4 8
M  V30 8 1 7 10
M  V30 9 2 8 11
M  V30 10 2 9 10
M  V30 11 1 9 11
M  V30 12 1 9 12
M  V30 END BOND
M  V30 END CTAB
M  END

> <INPUT>
C10H14N2

> <FOUND_BY>
MS Ready Formula

> <DTXCID_INDIVIDUAL_COMPONENT>
DTXCID00375705

> <FORMULA_INDIVIDUAL_COMPONENT>
C10H14N2

> <SMILES_INDIVIDUAL_COMPONENT>
CC(C)C1=CC=C(C=C1)C(N)=N

> <MAPPED_DTXSID>
DTXSID30424871

> <PREFERRED_NAME_DTXSID>
4-Isopropylbenzamidine

> <CASRN_DTXSID>
743417-63-2

> <FORMULA_MAPPED_DTXSID>
C10H14N2

> <SMILES_MAPPED_DTXSID>
CC(C)C1=CC=C(C=C1)C(N)=N

> <MS_READY_SMILES>
CC(C)C1=CC=C(C=C1)C(N)=N

> <INCHI_STRING_DTXCID>
InChI=1S/C10H14N2/c1-7(2)8-3-5-9(6-4-8)10(11)12/h3-7H,1-2H3,(H3,11,12)

> <INCHIKEY_DTXCID>
GIJOFUJDYGKZGG-UHFFFAOYSA-N

> <MONOISOTOPIC_MASS_DTXCID>
162.115698459

> <EXPOCAST_MEDIAN_EXPOSURE_PREDICTION_MG/KG-BW/DAY>
-

> <EXPOCAST>
0

> <NHANES>
0

> <DATA_SOURCES>
1

> <TOXVAL_DATA>
0

> <TOXCAST_PERCENT_ACTIVE>
-

> <TOXCAST_NUMBER_OF_ASSAYS/TOTAL>
-

> <NUMBER_OF_PUBMED_ARTICLES>
-

> <PUBCHEM_DATA_SOURCES>
19

> <CPDAT_COUNT>
-

> <ATMOSPHERIC_HYDROXYLATION_RATE_(AOH)_CM3/MOLECULE*SEC_OPERA_PRED>
1.8067e-11

> <BIOCONCENTRATION_FACTOR_OPERA_PRED>
10.2762

> <BIODEGRADATION_HALF_LIFE_DAYS_DAYS_OPERA_PRED>
3.91074

> <BOILING_POINT_DEGC_OPERA_PRED>
304.105

> <HENRYS_LAW_ATM-M3/MOLE_OPERA_PRED>
1.60424e-07

> <OPERA_KM_DAYS_OPERA_PRED>
0.283118

> <OCTANOL_AIR_PARTITION_COEFF_LOGKOA_OPERA_PRED>
7.78256

> <SOIL_ADSORPTION_COEFFICIENT_KOC_L/KG_OPERA_PRED>
83.5756

> <OCTANOL_WATER_PARTITION_LOGP_OPERA_PRED>
1.82545

> <MELTING_POINT_DEGC_OPERA_PRED>
162.608

> <VAPOR_PRESSURE_MMHG_OPERA_PRED>
0.00161817

> <WATER_SOLUBILITY_MOL/L_OPERA_PRED>
0.00375952

> <TEST_BCF_TEST_PRED>
-

> <BOILING_POINT_DEGC_TEST_PRED>
-

> <DENSITY_G/CM^3_TEST_PRED>
1.239

> <FLASH_POINT_DEGC_TEST_PRED>
131.871

> <MELTING_POINT_DEGC_TEST_PRED>
136.9

> <SURFACE_TENSION_DYN/CM_TEST_PRED>
-

> <THERMAL_CONDUCTIVITY_MW/(M*K)_TEST_PRED>
-

> <VISCOSITY_CP_CP_TEST_PRED>
-

> <VAPOR_PRESSURE_MMHG_TEST_PRED>
-

> <WATER_SOLUBILITY_MOL/L_TEST_PRED>
-

> <AEGLVALUES>
0

> <ALGALTOX>
0

> <ARCHEMICALS>
0

> <ATSDRLST>
0

> <BISPHENOLS>
0

> <OEHHA>
0

> <CERAPP>
0

> <FUNNAMES>
0

> <KWRSJERPS>
0

> <EPACONS>
0

> <IRIS>
0

> <EPAHFR>
0

> <EUCOSMETICS>
0

> <FRENCHLIST>
0

> <HEROMAP>
0

> <ITNANTIBIOTIC>
0

> <KEMIMARKET>
0

> <MASSBANKREF>
0

> <MASSBANKEUSP>
0

> <NEMILIST>
0

> <NATADB>
0

> <NIOSHIDLH>
0

> <NIOSHICSC>
0

> <NIOSHNPG>
0

> <NIOSHSKIN>
0

> <NORMANCT15>
0

> <SFISHFLUORO>
0

> <NORMANPRI>
0

> <NORMANEWS>
0

> <PFASTRIER>
0

> <SWISSPHARMA>
0

> <PPRTVWEB>
0

> <STOCKHOLM>
0

> <STOFFIDENT>
0

> <SCDM>
0

> <EAWAGSURF>
0

> <SWISSPEST>
0

> <TOX21SL>
0

> <TOXCAST>
0

> <TOXCAST_E1K>
0

> <TOXCAST_PH1V2>
0

> <TOXCAST_PH2>
0

> <TOXCAST_PH3>
0

> <TOXCAST_PHASEI>
0

> <TOXCAST_PHASEII>
0

> <TOXCAST_PHASEIII>
0

> <TRIRELEASE>
0

> <TSCASURF>
0

> <UJIBADE>
0

> <ATHENSSUS>
0

> <UATHTARGETS>
0

$$$$
382640
  Mrv1611109291611282D          

  0  0  0     0  0            999 V3000
M  V30 BEGIN CTAB
M  V30 COUNTS 12 13 0 0 0
M  V30 BEGIN ATOM
M  V30 1 N -1.9109 -3.8889 0 0
M  V30 2 C -1.9109 -2.3489 0 0
M  V30 3 C -0.5773 -1.5789 0 0
M  V30 4 C -0.5773 -0.0389 0 0
M  V30 5 C 0.7564 0.7311 0 0
M  V30 6 C 2.0901 -0.0389 0 0
M  V30 7 C 2.0901 -1.5789 0 0
M  V30 8 C 3.4238 -2.3489 0 0
M  V30 9 N 0.7564 -2.3489 0 0
M  V30 10 C -1.9109 0.7311 0 0
M  V30 11 C -3.2446 -0.0389 0 0
M  V30 12 C -3.2446 -1.5789 0 0
M  V30 END ATOM
M  V30 BEGIN BOND
M  V30 1 1 1 2
M  V30 2 1 2 3
M  V30 3 2 3 4
M  V30 4 1 4 5
M  V30 5 2 5 6
M  V30 6 1 6 7
M  V30 7 1 7 8
M  V30 8 2 7 9
M  V30 9 1 9 3
M  V30 10 1 4 10
M  V30 11 1 10 11
M  V30 12 1 11 12
M  V30 13 1 12 2
M  V30 END BOND
M  V30 END CTAB
M  END

> <INPUT>
C10H14N2

> <FOUND_BY>
MS Ready Formula

> <DTXCID_INDIVIDUAL_COMPONENT>
DTXCID80837553

> <FORMULA_INDIVIDUAL_COMPONENT>
C10H14N2

> <SMILES_INDIVIDUAL_COMPONENT>
CC1=NC2=C(CCCC2N)C=C1

> <MAPPED_DTXSID>
DTXSID00431810

> <PREFERRED_NAME_DTXSID>
2-methyl-5,6,7,8-tetrahydroquinolin-8-ylamine

> <CASRN_DTXSID>
502612-52-4

> <FORMULA_MAPPED_DTXSID>
C10H14N2

> <SMILES_MAPPED_DTXSID>
CC1=NC2=C(CCCC2N)C=C1

> <MS_READY_SMILES>
CC1=NC2=C(CCCC2N)C=C1

> <INCHI_STRING_DTXCID>
InChI=1S/C10H14N2/c1-7-5-6-8-3-2-4-9(11)10(8)12-7/h5-6,9H,2-4,11H2,1H3

> <INCHIKEY_DTXCID>
IXOVJHWQNJYEPQ-UHFFFAOYSA-N

> <MONOISOTOPIC_MASS_DTXCID>
162.115698459

> <EXPOCAST_MEDIAN_EXPOSURE_PREDICTION_MG/KG-BW/DAY>
-

> <EXPOCAST>
0

> <NHANES>
0

> <DATA_SOURCES>
1

> <TOXVAL_DATA>
0

> <TOXCAST_PERCENT_ACTIVE>
-

> <TOXCAST_NUMBER_OF_ASSAYS/TOTAL>
-

> <NUMBER_OF_PUBMED_ARTICLES>
-

> <PUBCHEM_DATA_SOURCES>
13

> <CPDAT_COUNT>
-

> <ATMOSPHERIC_HYDROXYLATION_RATE_(AOH)_CM3/MOLECULE*SEC_OPERA_PRED>
2.12216e-11

> <BIOCONCENTRATION_FACTOR_OPERA_PRED>
6.41611

> <BIODEGRADATION_HALF_LIFE_DAYS_DAYS_OPERA_PRED>
3.81411

> <BOILING_POINT_DEGC_OPERA_PRED>
286.2

> <HENRYS_LAW_ATM-M3/MOLE_OPERA_PRED>
2.7046e-07

> <OPERA_KM_DAYS_OPERA_PRED>
0.473594

> <OCTANOL_AIR_PARTITION_COEFF_LOGKOA_OPERA_PRED>
8.50991

> <SOIL_ADSORPTION_COEFFICIENT_KOC_L/KG_OPERA_PRED>
109.452

> <OCTANOL_WATER_PARTITION_LOGP_OPERA_PRED>
1.1758

> <MELTING_POINT_DEGC_OPERA_PRED>
127.158

> <VAPOR_PRESSURE_MMHG_OPERA_PRED>
0.000151081

> <WATER_SOLUBILITY_MOL/L_OPERA_PRED>
0.0187123

> <TEST_BCF_TEST_PRED>
8.74984

> <BOILING_POINT_DEGC_TEST_PRED>
285.027

> <DENSITY_G/CM^3_TEST_PRED>
1.092

> <FLASH_POINT_DEGC_TEST_PRED>
140.333

> <MELTING_POINT_DEGC_TEST_PRED>
91.71

> <SURFACE_TENSION_DYN/CM_TEST_PRED>
-

> <THERMAL_CONDUCTIVITY_MW/(M*K)_TEST_PRED>
149.263

> <VISCOSITY_CP_CP_TEST_PRED>
10.8143

> <VAPOR_PRESSURE_MMHG_TEST_PRED>
0.000372392

> <WATER_SOLUBILITY_MOL/L_TEST_PRED>
0.0215774

> <AEGLVALUES>
0

> <ALGALTOX>
0

> <ARCHEMICALS>
0

> <ATSDRLST>
0

> <BISPHENOLS>
0

> <OEHHA>
0

> <CERAPP>
0

> <FUNNAMES>
0

> <KWRSJERPS>
0

> <EPACONS>
0

> <IRIS>
0

> <EPAHFR>
0

> <EUCOSMETICS>
0

> <FRENCHLIST>
0

> <HEROMAP>
0

> <ITNANTIBIOTIC>
0

> <KEMIMARKET>
0

> <MASSBANKREF>
0

> <MASSBANKEUSP>
0

> <NEMILIST>
0

> <NATADB>
0

> <NIOSHIDLH>
0

> <NIOSHICSC>
0

> <NIOSHNPG>
0

> <NIOSHSKIN>
0

> <NORMANCT15>
0

> <SFISHFLUORO>
0

> <NORMANPRI>
0

> <NORMANEWS>
0

> <PFASTRIER>
0

> <SWISSPHARMA>
0

> <PPRTVWEB>
0

> <STOCKHOLM>
0

> <STOFFIDENT>
0

> <SCDM>
0

> <EAWAGSURF>
0

> <SWISSPEST>
0

> <TOX21SL>
0

> <TOXCAST>
0

> <TOXCAST_E1K>
0

> <TOXCAST_PH1V2>
0

> <TOXCAST_PH2>
0

> <TOXCAST_PH3>
0

> <TOXCAST_PHASEI>
0

> <TOXCAST_PHASEII>
0

> <TOXCAST_PHASEIII>
0

> <TRIRELEASE>
0

> <TSCASURF>
0

> <UJIBADE>
0

> <ATHENSSUS>
0

> <UATHTARGETS>
0

$$$$
383696
  Mrv1611109291611302D          

  0  0  0     0  0            999 V3000
M  V30 BEGIN CTAB
M  V30 COUNTS 12 13 0 0 0
M  V30 BEGIN ATOM
M  V30 1 N -0.8489 1.3711 0 0
M  V30 2 C 0.4848 0.6011 0 0
M  V30 3 C 1.8185 1.3711 0 0
M  V30 4 C 3.1521 0.6011 0 0
M  V30 5 C 3.1521 -0.9389 0 0
M  V30 6 C 1.8185 -1.7089 0 0
M  V30 7 C 0.4848 -0.9389 0 0
M  V30 8 C -0.8489 -1.7089 0 0
M  V30 9 C -2.1826 -0.9389 0 0
M  V30 10 N -3.5163 -1.7089 0 0
M  V30 11 C -3.5163 -3.2489 0 0
M  V30 12 C -2.1826 0.6011 0 0
M  V30 END ATOM
M  V30 BEGIN BOND
M  V30 1 1 1 2
M  V30 2 2 2 3
M  V30 3 1 3 4
M  V30 4 2 4 5
M  V30 5 1 5 6
M  V30 6 2 6 7
M  V30 7 1 7 2
M  V30 8 1 7 8
M  V30 9 1 8 9
M  V30 10 1 9 10
M  V30 11 1 10 11
M  V30 12 1 9 12
M  V30 13 1 12 1
M  V30 END BOND
M  V30 END CTAB
M  END

> <INPUT>
C10H14N2

> <FOUND_BY>
MS Ready Formula

> <DTXCID_INDIVIDUAL_COMPONENT>
DTXCID70837941

> <FORMULA_INDIVIDUAL_COMPONENT>
C10H14N2

> <SMILES_INDIVIDUAL_COMPONENT>
CNC1CNC2=CC=CC=C2C1

> <MAPPED_DTXSID>
DTXSID60432868

> <PREFERRED_NAME_DTXSID>
(R)-N-Methyl-1,2,3,4-tetrahydroquinolin-3-amine

> <CASRN_DTXSID>
166742-75-2

> <FORMULA_MAPPED_DTXSID>
C10H14N2

> <SMILES_MAPPED_DTXSID>
CN[C@H]1CNC2=CC=CC=C2C1

> <MS_READY_SMILES>
CNC1CNC2=CC=CC=C2C1

> <INCHI_STRING_DTXCID>
InChI=1S/C10H14N2/c1-11-9-6-8-4-2-3-5-10(8)12-7-9/h2-5,9,11-12H,6-7H2,1H3

> <INCHIKEY_DTXCID>
IQDMUSPYIULEGD-UHFFFAOYSA-N

> <MONOISOTOPIC_MASS_DTXCID>
162.115698459

> <EXPOCAST_MEDIAN_EXPOSURE_PREDICTION_MG/KG-BW/DAY>
-

> <EXPOCAST>
0

> <NHANES>
0

> <DATA_SOURCES>
1

> <TOXVAL_DATA>
0

> <TOXCAST_PERCENT_ACTIVE>
-

> <TOXCAST_NUMBER_OF_ASSAYS/TOTAL>
-

> <NUMBER_OF_PUBMED_ARTICLES>
-

> <PUBCHEM_DATA_SOURCES>
25

> <CPDAT_COUNT>
-

> <ATMOSPHERIC_HYDROXYLATION_RATE_(AOH)_CM3/MOLECULE*SEC_OPERA_PRED>
2.16307e-11

> <BIOCONCENTRATION_FACTOR_OPERA_PRED>
8.01222

> <BIODEGRADATION_HALF_LIFE_DAYS_DAYS_OPERA_PRED>
3.16831

> <BOILING_POINT_DEGC_OPERA_PRED>
266.114

> <HENRYS_LAW_ATM-M3/MOLE_OPERA_PRED>
3.55143e-08

> <OPERA_KM_DAYS_OPERA_PRED>
0.160657

> <OCTANOL_AIR_PARTITION_COEFF_LOGKOA_OPERA_PRED>
7.93756

> <SOIL_ADSORPTION_COEFFICIENT_KOC_L/KG_OPERA_PRED>
127.13

> <OCTANOL_WATER_PARTITION_LOGP_OPERA_PRED>
0.879308

> <MELTING_POINT_DEGC_OPERA_PRED>
80.58

> <VAPOR_PRESSURE_MMHG_OPERA_PRED>
0.000564094

> <WATER_SOLUBILITY_MOL/L_OPERA_PRED>
0.823289

> <TEST_BCF_TEST_PRED>
9.95405

> <BOILING_POINT_DEGC_TEST_PRED>
283.38

> <DENSITY_G/CM^3_TEST_PRED>
1.052

> <FLASH_POINT_DEGC_TEST_PRED>
131.173

> <MELTING_POINT_DEGC_TEST_PRED>
87.198

> <SURFACE_TENSION_DYN/CM_TEST_PRED>
-

> <THERMAL_CONDUCTIVITY_MW/(M*K)_TEST_PRED>
167.623

> <VISCOSITY_CP_CP_TEST_PRED>
14.0605

> <VAPOR_PRESSURE_MMHG_TEST_PRED>
5.80764e-05

> <WATER_SOLUBILITY_MOL/L_TEST_PRED>
0.0122462

> <AEGLVALUES>
0

> <ALGALTOX>
0

> <ARCHEMICALS>
0

> <ATSDRLST>
0

> <BISPHENOLS>
0

> <OEHHA>
0

> <CERAPP>
0

> <FUNNAMES>
0

> <KWRSJERPS>
0

> <EPACONS>
0

> <IRIS>
0

> <EPAHFR>
0

> <EUCOSMETICS>
0

> <FRENCHLIST>
0

> <HEROMAP>
0

> <ITNANTIBIOTIC>
0

> <KEMIMARKET>
0

> <MASSBANKREF>
0

> <MASSBANKEUSP>
0

> <NEMILIST>
0

> <NATADB>
0

> <NIOSHIDLH>
0

> <NIOSHICSC>
0

> <NIOSHNPG>
0

> <NIOSHSKIN>
0

> <NORMANCT15>
0

> <SFISHFLUORO>
0

> <NORMANPRI>
0

> <NORMANEWS>
0

> <PFASTRIER>
0

> <SWISSPHARMA>
0

> <PPRTVWEB>
0

> <STOCKHOLM>
0

> <STOFFIDENT>
0

> <SCDM>
0

> <EAWAGSURF>
0

> <SWISSPEST>
0

> <TOX21SL>
0

> <TOXCAST>
0

> <TOXCAST_E1K>
0

> <TOXCAST_PH1V2>
0

> <TOXCAST_PH2>
0

> <TOXCAST_PH3>
0

> <TOXCAST_PHASEI>
0

> <TOXCAST_PHASEII>
0

> <TOXCAST_PHASEIII>
0

> <TRIRELEASE>
0

> <TSCASURF>
0

> <UJIBADE>
0

> <ATHENSSUS>
0

> <UATHTARGETS>
0

$$$$

  Mrv1533009301519002D          

  0  0  0     0  0            999 V3000
M  V30 BEGIN CTAB
M  V30 COUNTS 12 13 0 0 0
M  V30 BEGIN ATOM
M  V30 1 N 5.7475 1.288 0 0
M  V30 2 N 8.9673 3.1472 0 0
M  V30 3 C 7.6335 2.3772 0 0
M  V30 4 C 7.235 0.8895 0 0
M  V30 5 C 6.1462 2.7757 0 0
M  V30 6 C 4.4137 0.518 0 0
M  V30 7 C 4.4137 -1.022 0 0
M  V30 8 C 3.08 -1.792 0 0
M  V30 9 C 5.7475 -1.792 0 0
M  V30 10 C 3.08 -3.332 0 0
M  V30 11 C 5.7475 -3.332 0 0
M  V30 12 C 4.4137 -4.102 0 0
M  V30 END ATOM
M  V30 BEGIN BOND
M  V30 1 1 1 4
M  V30 2 1 1 5
M  V30 3 1 1 6
M  V30 4 1 2 3
M  V30 5 1 3 4
M  V30 6 1 3 5
M  V30 7 1 6 7
M  V30 8 2 7 8
M  V30 9 1 7 9
M  V30 10 1 8 10
M  V30 11 2 9 11
M  V30 12 2 10 12
M  V30 13 1 11 12
M  V30 END BOND
M  V30 END CTAB
M  END

> <INPUT>
C10H14N2

> <FOUND_BY>
MS Ready Formula

> <DTXCID_INDIVIDUAL_COMPONENT>
DTXCID80387442

> <FORMULA_INDIVIDUAL_COMPONENT>
C10H14N2

> <SMILES_INDIVIDUAL_COMPONENT>
NC1CN(CC2=CC=CC=C2)C1

> <MAPPED_DTXSID>
DTXSID50436618

> <PREFERRED_NAME_DTXSID>
1-benzylazetidin-3-amine

> <CASRN_DTXSID>
223381-58-6

> <FORMULA_MAPPED_DTXSID>
C10H14N2

> <SMILES_MAPPED_DTXSID>
NC1CN(CC2=CC=CC=C2)C1

> <MS_READY_SMILES>
NC1CN(CC2=CC=CC=C2)C1

> <INCHI_STRING_DTXCID>
InChI=1S/C10H14N2/c11-10-7-12(8-10)6-9-4-2-1-3-5-9/h1-5,10H,6-8,11H2

> <INCHIKEY_DTXCID>
KLUJUFXZZAOGQQ-UHFFFAOYSA-N

> <MONOISOTOPIC_MASS_DTXCID>
162.115698459

> <EXPOCAST_MEDIAN_EXPOSURE_PREDICTION_MG/KG-BW/DAY>
-

> <EXPOCAST>
0

> <NHANES>
0

> <DATA_SOURCES>
1

> <TOXVAL_DATA>
0

> <TOXCAST_PERCENT_ACTIVE>
-

> <TOXCAST_NUMBER_OF_ASSAYS/TOTAL>
-

> <NUMBER_OF_PUBMED_ARTICLES>
-

> <PUBCHEM_DATA_SOURCES>
53

> <CPDAT_COUNT>
-

> <ATMOSPHERIC_HYDROXYLATION_RATE_(AOH)_CM3/MOLECULE*SEC_OPERA_PRED>
1.84542e-11

> <BIOCONCENTRATION_FACTOR_OPERA_PRED>
2.74283

> <BIODEGRADATION_HALF_LIFE_DAYS_DAYS_OPERA_PRED>
3.33063

> <BOILING_POINT_DEGC_OPERA_PRED>
288.578

> <HENRYS_LAW_ATM-M3/MOLE_OPERA_PRED>
8.91058e-07

> <OPERA_KM_DAYS_OPERA_PRED>
0.14785

> <OCTANOL_AIR_PARTITION_COEFF_LOGKOA_OPERA_PRED>
8.41756

> <SOIL_ADSORPTION_COEFFICIENT_KOC_L/KG_OPERA_PRED>
128.802

> <OCTANOL_WATER_PARTITION_LOGP_OPERA_PRED>
1.05341

> <MELTING_POINT_DEGC_OPERA_PRED>
94.0312

> <VAPOR_PRESSURE_MMHG_OPERA_PRED>
0.0102958

> <WATER_SOLUBILITY_MOL/L_OPERA_PRED>
0.166732

> <TEST_BCF_TEST_PRED>
9.81748

> <BOILING_POINT_DEGC_TEST_PRED>
268.513

> <DENSITY_G/CM^3_TEST_PRED>
1.044

> <FLASH_POINT_DEGC_TEST_PRED>
99.744

> <MELTING_POINT_DEGC_TEST_PRED>
82.045

> <SURFACE_TENSION_DYN/CM_TEST_PRED>
-

> <THERMAL_CONDUCTIVITY_MW/(M*K)_TEST_PRED>
163.233

> <VISCOSITY_CP_CP_TEST_PRED>
4.74242

> <VAPOR_PRESSURE_MMHG_TEST_PRED>
0.00116145

> <WATER_SOLUBILITY_MOL/L_TEST_PRED>
0.0428549

> <AEGLVALUES>
0

> <ALGALTOX>
0

> <ARCHEMICALS>
0

> <ATSDRLST>
0

> <BISPHENOLS>
0

> <OEHHA>
0

> <CERAPP>
0

> <FUNNAMES>
0

> <KWRSJERPS>
0

> <EPACONS>
0

> <IRIS>
0

> <EPAHFR>
0

> <EUCOSMETICS>
0

> <FRENCHLIST>
0

> <HEROMAP>
0

> <ITNANTIBIOTIC>
0

> <KEMIMARKET>
0

> <MASSBANKREF>
0

> <MASSBANKEUSP>
0

> <NEMILIST>
0

> <NATADB>
0

> <NIOSHIDLH>
0

> <NIOSHICSC>
0

> <NIOSHNPG>
0

> <NIOSHSKIN>
0

> <NORMANCT15>
0

> <SFISHFLUORO>
0

> <NORMANPRI>
0

> <NORMANEWS>
0

> <PFASTRIER>
0

> <SWISSPHARMA>
0

> <PPRTVWEB>
0

> <STOCKHOLM>
0

> <STOFFIDENT>
0

> <SCDM>
0

> <EAWAGSURF>
0

> <SWISSPEST>
0

> <TOX21SL>
0

> <TOXCAST>
0

> <TOXCAST_E1K>
0

> <TOXCAST_PH1V2>
0

> <TOXCAST_PH2>
0

> <TOXCAST_PH3>
0

> <TOXCAST_PHASEI>
0

> <TOXCAST_PHASEII>
0

> <TOXCAST_PHASEIII>
0

> <TRIRELEASE>
0

> <TSCASURF>
0

> <UJIBADE>
0

> <ATHENSSUS>
0

> <UATHTARGETS>
0

$$$$

  Mrv1533009301519002D          

  0  0  0     0  0            999 V3000
M  V30 BEGIN CTAB
M  V30 COUNTS 12 13 0 0 1
M  V30 BEGIN ATOM
M  V30 1 N 4.4135 -0.5579 0 0
M  V30 2 N 4.4135 -2.0979 0 0
M  V30 3 C 4.4135 2.5221 0 0
M  V30 4 C 3.08 1.7521 0 0
M  V30 5 C 5.7473 1.7521 0 0
M  V30 6 C 3.08 0.2121 0 0
M  V30 7 C 5.7473 0.2121 0 0
M  V30 8 C 7.1241 2.5753 0 0
M  V30 9 C 7.1241 -0.6113 0 0
M  V30 10 C 8.5195 1.7842 0 0
M  V30 11 C 8.5195 0.1799 0 0
M  V30 12 C 9.85 2.5592 0 0
M  V30 END ATOM
M  V30 BEGIN BOND
M  V30 1 1 1 2
M  V30 2 1 1 6
M  V30 3 1 1 7
M  V30 4 1 3 4
M  V30 5 1 3 5
M  V30 6 1 4 6
M  V30 7 2 5 7
M  V30 8 1 5 8
M  V30 9 1 7 9
M  V30 10 2 8 10
M  V30 11 2 9 11
M  V30 12 1 10 11
M  V30 13 1 10 12
M  V30 END BOND
M  V30 END CTAB
M  END

> <INPUT>
C10H14N2

> <FOUND_BY>
MS Ready Formula

> <DTXCID_INDIVIDUAL_COMPONENT>
DTXCID70389652

> <FORMULA_INDIVIDUAL_COMPONENT>
C10H14N2

> <SMILES_INDIVIDUAL_COMPONENT>
CC1=CC2=C(C=C1)N(N)CCC2

> <MAPPED_DTXSID>
DTXSID10438830

> <PREFERRED_NAME_DTXSID>
1(2H)-Quinolinamine, 3,4-dihydro-6-methyl-

> <CASRN_DTXSID>
66556-07-8

> <FORMULA_MAPPED_DTXSID>
C10H14N2

> <SMILES_MAPPED_DTXSID>
CC1=CC2=C(C=C1)N(N)CCC2

> <MS_READY_SMILES>
CC1=CC2=C(C=C1)N(N)CCC2

> <INCHI_STRING_DTXCID>
InChI=1S/C10H14N2/c1-8-4-5-10-9(7-8)3-2-6-12(10)11/h4-5,7H,2-3,6,11H2,1H3

> <INCHIKEY_DTXCID>
FSTBMVYMVIWCKK-UHFFFAOYSA-N

> <MONOISOTOPIC_MASS_DTXCID>
162.115698459

> <EXPOCAST_MEDIAN_EXPOSURE_PREDICTION_MG/KG-BW/DAY>
-

> <EXPOCAST>
0

> <NHANES>
0

> <DATA_SOURCES>
1

> <TOXVAL_DATA>
0

> <TOXCAST_PERCENT_ACTIVE>
-

> <TOXCAST_NUMBER_OF_ASSAYS/TOTAL>
-

> <NUMBER_OF_PUBMED_ARTICLES>
-

> <PUBCHEM_DATA_SOURCES>
11

> <CPDAT_COUNT>
-

> <ATMOSPHERIC_HYDROXYLATION_RATE_(AOH)_CM3/MOLECULE*SEC_OPERA_PRED>
2.09874e-11

> <BIOCONCENTRATION_FACTOR_OPERA_PRED>
6.88542

> <BIODEGRADATION_HALF_LIFE_DAYS_DAYS_OPERA_PRED>
3.81958

> <BOILING_POINT_DEGC_OPERA_PRED>
269.736

> <HENRYS_LAW_ATM-M3/MOLE_OPERA_PRED>
8.74294e-07

> <OPERA_KM_DAYS_OPERA_PRED>
0.352855

> <OCTANOL_AIR_PARTITION_COEFF_LOGKOA_OPERA_PRED>
7.08406

> <SOIL_ADSORPTION_COEFFICIENT_KOC_L/KG_OPERA_PRED>
104.118

> <OCTANOL_WATER_PARTITION_LOGP_OPERA_PRED>
2.22491

> <MELTING_POINT_DEGC_OPERA_PRED>
120.546

> <VAPOR_PRESSURE_MMHG_OPERA_PRED>
0.0152006

> <WATER_SOLUBILITY_MOL/L_OPERA_PRED>
0.0059636

> <TEST_BCF_TEST_PRED>
-

> <BOILING_POINT_DEGC_TEST_PRED>
239.053

> <DENSITY_G/CM^3_TEST_PRED>
1.096

> <FLASH_POINT_DEGC_TEST_PRED>
127.641

> <MELTING_POINT_DEGC_TEST_PRED>
115.075

> <SURFACE_TENSION_DYN/CM_TEST_PRED>
27.468

> <THERMAL_CONDUCTIVITY_MW/(M*K)_TEST_PRED>
-

> <VISCOSITY_CP_CP_TEST_PRED>
-

> <VAPOR_PRESSURE_MMHG_TEST_PRED>
-

> <WATER_SOLUBILITY_MOL/L_TEST_PRED>
0.0101158

> <AEGLVALUES>
0

> <ALGALTOX>
0

> <ARCHEMICALS>
0

> <ATSDRLST>
0

> <BISPHENOLS>
0

> <OEHHA>
0

> <CERAPP>
0

> <FUNNAMES>
0

> <KWRSJERPS>
0

> <EPACONS>
0

> <IRIS>
0

> <EPAHFR>
0

> <EUCOSMETICS>
0

> <FRENCHLIST>
0

> <HEROMAP>
0

> <ITNANTIBIOTIC>
0

> <KEMIMARKET>
0

> <MASSBANKREF>
0

> <MASSBANKEUSP>
0

> <NEMILIST>
0

> <NATADB>
0

> <NIOSHIDLH>
0

> <NIOSHICSC>
0

> <NIOSHNPG>
0

> <NIOSHSKIN>
0

> <NORMANCT15>
0

> <SFISHFLUORO>
0

> <NORMANPRI>
0

> <NORMANEWS>
0

> <PFASTRIER>
0

> <SWISSPHARMA>
0

> <PPRTVWEB>
0

> <STOCKHOLM>
0

> <STOFFIDENT>
0

> <SCDM>
0

> <EAWAGSURF>
0

> <SWISSPEST>
0

> <TOX21SL>
0

> <TOXCAST>
0

> <TOXCAST_E1K>
0

> <TOXCAST_PH1V2>
0

> <TOXCAST_PH2>
0

> <TOXCAST_PH3>
0

> <TOXCAST_PHASEI>
0

> <TOXCAST_PHASEII>
0

> <TOXCAST_PHASEIII>
0

> <TRIRELEASE>
0

> <TSCASURF>
0

> <UJIBADE>
0

> <ATHENSSUS>
0

> <UATHTARGETS>
0

$$$$

  Mrv1533009301519022D          

  0  0  0     0  0            999 V3000
M  V30 BEGIN CTAB
M  V30 COUNTS 12 13 0 0 0
M  V30 BEGIN ATOM
M  V30 1 N 7.8305 -1.9943 0 0
M  V30 2 N 10.5564 1.1762 0 0
M  V30 3 C 3.08 -0.401 0 0
M  V30 4 C 3.7483 0.9865 0 0
M  V30 5 C 3.7483 -1.7885 0 0
M  V30 6 C 5.2496 1.3294 0 0
M  V30 7 C 5.2496 -2.1312 0 0
M  V30 8 C 6.4536 0.3692 0 0
M  V30 9 C 6.4536 -1.171 0 0
M  V30 10 C 7.8305 1.1924 0 0
M  V30 11 C 9.2256 0.4011 0 0
M  V30 12 C 9.2256 -1.2029 0 0
M  V30 END ATOM
M  V30 BEGIN BOND
M  V30 1 1 1 9
M  V30 2 2 1 12
M  V30 3 1 2 11
M  V30 4 1 3 4
M  V30 5 1 3 5
M  V30 6 1 4 6
M  V30 7 1 5 7
M  V30 8 1 6 8
M  V30 9 1 7 9
M  V30 10 2 8 9
M  V30 11 1 8 10
M  V30 12 2 10 11
M  V30 13 1 11 12
M  V30 END BOND
M  V30 END CTAB
M  END

> <INPUT>
C10H14N2

> <FOUND_BY>
MS Ready Formula

> <DTXCID_INDIVIDUAL_COMPONENT>
DTXCID10395095

> <FORMULA_INDIVIDUAL_COMPONENT>
C10H14N2

> <SMILES_INDIVIDUAL_COMPONENT>
NC1=CC2=C(CCCCC2)N=C1

> <MAPPED_DTXSID>
DTXSID10444274

> <PREFERRED_NAME_DTXSID>
6,7,8,9-tetrahydro-5H-cyclohepta[b]pyridin-3-amine

> <CASRN_DTXSID>
178209-28-4

> <FORMULA_MAPPED_DTXSID>
C10H14N2

> <SMILES_MAPPED_DTXSID>
NC1=CC2=C(CCCCC2)N=C1

> <MS_READY_SMILES>
NC1=CC2=C(CCCCC2)N=C1

> <INCHI_STRING_DTXCID>
InChI=1S/C10H14N2/c11-9-6-8-4-2-1-3-5-10(8)12-7-9/h6-7H,1-5,11H2

> <INCHIKEY_DTXCID>
GFMPWQOFIOWFIV-UHFFFAOYSA-N

> <MONOISOTOPIC_MASS_DTXCID>
162.115698459

> <EXPOCAST_MEDIAN_EXPOSURE_PREDICTION_MG/KG-BW/DAY>
-

> <EXPOCAST>
0

> <NHANES>
0

> <DATA_SOURCES>
1

> <TOXVAL_DATA>
0

> <TOXCAST_PERCENT_ACTIVE>
-

> <TOXCAST_NUMBER_OF_ASSAYS/TOTAL>
-

> <NUMBER_OF_PUBMED_ARTICLES>
-

> <PUBCHEM_DATA_SOURCES>
22

> <CPDAT_COUNT>
-

> <ATMOSPHERIC_HYDROXYLATION_RATE_(AOH)_CM3/MOLECULE*SEC_OPERA_PRED>
1.53531e-11

> <BIOCONCENTRATION_FACTOR_OPERA_PRED>
7.02489

> <BIODEGRADATION_HALF_LIFE_DAYS_DAYS_OPERA_PRED>
3.82652

> <BOILING_POINT_DEGC_OPERA_PRED>
283.618

> <HENRYS_LAW_ATM-M3/MOLE_OPERA_PRED>
2.42413e-07

> <OPERA_KM_DAYS_OPERA_PRED>
0.504802

> <OCTANOL_AIR_PARTITION_COEFF_LOGKOA_OPERA_PRED>
8.7096

> <SOIL_ADSORPTION_COEFFICIENT_KOC_L/KG_OPERA_PRED>
108.453

> <OCTANOL_WATER_PARTITION_LOGP_OPERA_PRED>
1.0764

> <MELTING_POINT_DEGC_OPERA_PRED>
56.5688

> <VAPOR_PRESSURE_MMHG_OPERA_PRED>
2.7995e-05

> <WATER_SOLUBILITY_MOL/L_OPERA_PRED>
0.015167

> <TEST_BCF_TEST_PRED>
-

> <BOILING_POINT_DEGC_TEST_PRED>
295.029

> <DENSITY_G/CM^3_TEST_PRED>
1.09

> <FLASH_POINT_DEGC_TEST_PRED>
141.724

> <MELTING_POINT_DEGC_TEST_PRED>
108.912

> <SURFACE_TENSION_DYN/CM_TEST_PRED>
-

> <THERMAL_CONDUCTIVITY_MW/(M*K)_TEST_PRED>
155.334

> <VISCOSITY_CP_CP_TEST_PRED>
15.8489

> <VAPOR_PRESSURE_MMHG_TEST_PRED>
0.000251768

> <WATER_SOLUBILITY_MOL/L_TEST_PRED>
0.0088308

> <AEGLVALUES>
0

> <ALGALTOX>
0

> <ARCHEMICALS>
0

> <ATSDRLST>
0

> <BISPHENOLS>
0

> <OEHHA>
0

> <CERAPP>
0

> <FUNNAMES>
0

> <KWRSJERPS>
0

> <EPACONS>
0

> <IRIS>
0

> <EPAHFR>
0

> <EUCOSMETICS>
0

> <FRENCHLIST>
0

> <HEROMAP>
0

> <ITNANTIBIOTIC>
0

> <KEMIMARKET>
0

> <MASSBANKREF>
0

> <MASSBANKEUSP>
0

> <NEMILIST>
0

> <NATADB>
0

> <NIOSHIDLH>
0

> <NIOSHICSC>
0

> <NIOSHNPG>
0

> <NIOSHSKIN>
0

> <NORMANCT15>
0

> <SFISHFLUORO>
0

> <NORMANPRI>
0

> <NORMANEWS>
0

> <PFASTRIER>
0

> <SWISSPHARMA>
0

> <PPRTVWEB>
0

> <STOCKHOLM>
0

> <STOFFIDENT>
0

> <SCDM>
0

> <EAWAGSURF>
0

> <SWISSPEST>
0

> <TOX21SL>
0

> <TOXCAST>
0

> <TOXCAST_E1K>
0

> <TOXCAST_PH1V2>
0

> <TOXCAST_PH2>
0

> <TOXCAST_PH3>
0

> <TOXCAST_PHASEI>
0

> <TOXCAST_PHASEII>
0

> <TOXCAST_PHASEIII>
0

> <TRIRELEASE>
0

> <TSCASURF>
0

> <UJIBADE>
0

> <ATHENSSUS>
0

> <UATHTARGETS>
0

$$$$
676757
  Mrv1611109301622492D          

  0  0  0     0  0            999 V3000
M  V30 BEGIN CTAB
M  V30 COUNTS 12 13 0 0 0
M  V30 BEGIN ATOM
M  V30 1 N -4.1076 -0.3617 0 0
M  V30 2 C -2.7739 0.4083 0 0
M  V30 3 C -2.7739 1.9483 0 0
M  V30 4 C -1.4402 2.7183 0 0
M  V30 5 C -0.1065 1.9483 0 0
M  V30 6 C 1.2271 2.7183 0 0
M  V30 7 C 2.5608 1.9483 0 0
M  V30 8 C 2.5608 0.4083 0 0
M  V30 9 C 1.2271 -0.3617 0 0
M  V30 10 C -0.1065 0.4083 0 0
M  V30 11 C -1.4402 -0.3617 0 0
M  V30 12 N -1.4402 -1.9017 0 0
M  V30 END ATOM
M  V30 BEGIN BOND
M  V30 1 1 1 2
M  V30 2 1 2 3
M  V30 3 1 3 4
M  V30 4 1 4 5
M  V30 5 2 5 6
M  V30 6 1 6 7
M  V30 7 2 7 8
M  V30 8 1 8 9
M  V30 9 2 9 10
M  V30 10 1 10 5
M  V30 11 1 10 11
M  V30 12 1 11 2
M  V30 13 1 11 12
M  V30 END BOND
M  V30 END CTAB
M  END

> <INPUT>
C10H14N2

> <FOUND_BY>
MS Ready Formula

> <DTXCID_INDIVIDUAL_COMPONENT>
DTXCID90996165

> <FORMULA_INDIVIDUAL_COMPONENT>
C10H14N2

> <SMILES_INDIVIDUAL_COMPONENT>
NC1CCC2=CC=CC=C2C1N

> <MAPPED_DTXSID>
DTXSID70450775

> <PREFERRED_NAME_DTXSID>
Naphthalenediamine, 1,2,3,4-tetrahydro-

> <CASRN_DTXSID>
104993-83-1

> <FORMULA_MAPPED_DTXSID>
C10H14N2

> <SMILES_MAPPED_DTXSID>
NC1CCC2=CC=CC=C2C1N

> <MS_READY_SMILES>
NC1CCC2=CC=CC=C2C1N

> <INCHI_STRING_DTXCID>
InChI=1S/C10H14N2/c11-9-6-5-7-3-1-2-4-8(7)10(9)12/h1-4,9-10H,5-6,11-12H2

> <INCHIKEY_DTXCID>
VLSRPVYKKHYHON-UHFFFAOYSA-N

> <MONOISOTOPIC_MASS_DTXCID>
162.115698459

> <EXPOCAST_MEDIAN_EXPOSURE_PREDICTION_MG/KG-BW/DAY>
-

> <EXPOCAST>
0

> <NHANES>
0

> <DATA_SOURCES>
1

> <TOXVAL_DATA>
0

> <TOXCAST_PERCENT_ACTIVE>
-

> <TOXCAST_NUMBER_OF_ASSAYS/TOTAL>
-

> <NUMBER_OF_PUBMED_ARTICLES>
-

> <PUBCHEM_DATA_SOURCES>
14

> <CPDAT_COUNT>
-

> <ATMOSPHERIC_HYDROXYLATION_RATE_(AOH)_CM3/MOLECULE*SEC_OPERA_PRED>
2.40526e-11

> <BIOCONCENTRATION_FACTOR_OPERA_PRED>
4.65165

> <BIODEGRADATION_HALF_LIFE_DAYS_DAYS_OPERA_PRED>
8.00562

> <BOILING_POINT_DEGC_OPERA_PRED>
263.961

> <HENRYS_LAW_ATM-M3/MOLE_OPERA_PRED>
1.63938e-07

> <OPERA_KM_DAYS_OPERA_PRED>
0.177073

> <OCTANOL_AIR_PARTITION_COEFF_LOGKOA_OPERA_PRED>
7.95075

> <SOIL_ADSORPTION_COEFFICIENT_KOC_L/KG_OPERA_PRED>
139.08

> <OCTANOL_WATER_PARTITION_LOGP_OPERA_PRED>
0.657495

> <MELTING_POINT_DEGC_OPERA_PRED>
69.4312

> <VAPOR_PRESSURE_MMHG_OPERA_PRED>
0.00021998

> <WATER_SOLUBILITY_MOL/L_OPERA_PRED>
0.00294961

> <TEST_BCF_TEST_PRED>
4.25598

> <BOILING_POINT_DEGC_TEST_PRED>
264.374

> <DENSITY_G/CM^3_TEST_PRED>
1.067

> <FLASH_POINT_DEGC_TEST_PRED>
122.809

> <MELTING_POINT_DEGC_TEST_PRED>
118.119

> <SURFACE_TENSION_DYN/CM_TEST_PRED>
-

> <THERMAL_CONDUCTIVITY_MW/(M*K)_TEST_PRED>
-

> <VISCOSITY_CP_CP_TEST_PRED>
17.0608

> <VAPOR_PRESSURE_MMHG_TEST_PRED>
1.92309e-05

> <WATER_SOLUBILITY_MOL/L_TEST_PRED>
0.0249459

> <AEGLVALUES>
0

> <ALGALTOX>
0

> <ARCHEMICALS>
0

> <ATSDRLST>
0

> <BISPHENOLS>
0

> <OEHHA>
0

> <CERAPP>
0

> <FUNNAMES>
0

> <KWRSJERPS>
0

> <EPACONS>
0

> <IRIS>
0

> <EPAHFR>
0

> <EUCOSMETICS>
0

> <FRENCHLIST>
0

> <HEROMAP>
0

> <ITNANTIBIOTIC>
0

> <KEMIMARKET>
0

> <MASSBANKREF>
0

> <MASSBANKEUSP>
0

> <NEMILIST>
0

> <NATADB>
0

> <NIOSHIDLH>
0

> <NIOSHICSC>
0

> <NIOSHNPG>
0

> <NIOSHSKIN>
0

> <NORMANCT15>
0

> <SFISHFLUORO>
0

> <NORMANPRI>
0

> <NORMANEWS>
0

> <PFASTRIER>
0

> <SWISSPHARMA>
0

> <PPRTVWEB>
0

> <STOCKHOLM>
0

> <STOFFIDENT>
0

> <SCDM>
0

> <EAWAGSURF>
0

> <SWISSPEST>
0

> <TOX21SL>
0

> <TOXCAST>
0

> <TOXCAST_E1K>
0

> <TOXCAST_PH1V2>
0

> <TOXCAST_PH2>
0

> <TOXCAST_PH3>
0

> <TOXCAST_PHASEI>
0

> <TOXCAST_PHASEII>
0

> <TOXCAST_PHASEIII>
0

> <TRIRELEASE>
0

> <TSCASURF>
0

> <UJIBADE>
0

> <ATHENSSUS>
0

> <UATHTARGETS>
0

$$$$
602883
  Mrv1611109291616312D          

  0  0  0     0  0            999 V3000
M  V30 BEGIN CTAB
M  V30 COUNTS 12 13 0 0 0
M  V30 BEGIN ATOM
M  V30 1 N -2.6374 1.0299 0 0
M  V30 2 C -1.3037 1.7999 0 0
M  V30 3 C 0.03 1.0299 0 0
M  V30 4 C 1.3636 1.7999 0 0
M  V30 5 C 2.6973 1.0299 0 0
M  V30 6 C 2.6973 -0.5101 0 0
M  V30 7 C 1.3636 -1.2801 0 0
M  V30 8 C 0.03 -0.5101 0 0
M  V30 9 C -1.3037 -1.2801 0 0
M  V30 10 C -2.6374 -0.5101 0 0
M  V30 11 C -3.9711 -1.2801 0 0
M  V30 12 N -3.9711 -2.8201 0 0
M  V30 END ATOM
M  V30 BEGIN BOND
M  V30 1 1 1 2
M  V30 2 1 2 3
M  V30 3 2 3 4
M  V30 4 1 4 5
M  V30 5 2 5 6
M  V30 6 1 6 7
M  V30 7 2 7 8
M  V30 8 1 8 3
M  V30 9 1 8 9
M  V30 10 1 9 10
M  V30 11 1 10 1
M  V30 12 1 10 11
M  V30 13 1 11 12
M  V30 END BOND
M  V30 END CTAB
M  END

> <INPUT>
C10H14N2

> <FOUND_BY>
MS Ready Formula

> <DTXCID_INDIVIDUAL_COMPONENT>
DTXCID10882511

> <FORMULA_INDIVIDUAL_COMPONENT>
C10H14N2

> <SMILES_INDIVIDUAL_COMPONENT>
NCC1CC2=CC=CC=C2CN1

> <MAPPED_DTXSID>
DTXSID20452926

> <PREFERRED_NAME_DTXSID>
1-(1,2,3,4-Tetrahydroisoquinolin-3-yl)methanamine

> <CASRN_DTXSID>
147557-04-8

> <FORMULA_MAPPED_DTXSID>
C10H14N2

> <SMILES_MAPPED_DTXSID>
NCC1CC2=CC=CC=C2CN1

> <MS_READY_SMILES>
NCC1CC2=CC=CC=C2CN1

> <INCHI_STRING_DTXCID>
InChI=1S/C10H14N2/c11-6-10-5-8-3-1-2-4-9(8)7-12-10/h1-4,10,12H,5-7,11H2

> <INCHIKEY_DTXCID>
QQDYNQIMTRERLH-UHFFFAOYSA-N

> <MONOISOTOPIC_MASS_DTXCID>
162.115698459

> <EXPOCAST_MEDIAN_EXPOSURE_PREDICTION_MG/KG-BW/DAY>
-

> <EXPOCAST>
0

> <NHANES>
0

> <DATA_SOURCES>
1

> <TOXVAL_DATA>
0

> <TOXCAST_PERCENT_ACTIVE>
-

> <TOXCAST_NUMBER_OF_ASSAYS/TOTAL>
-

> <NUMBER_OF_PUBMED_ARTICLES>
-

> <PUBCHEM_DATA_SOURCES>
34

> <CPDAT_COUNT>
-

> <ATMOSPHERIC_HYDROXYLATION_RATE_(AOH)_CM3/MOLECULE*SEC_OPERA_PRED>
1.47682e-11

> <BIOCONCENTRATION_FACTOR_OPERA_PRED>
4.0331

> <BIODEGRADATION_HALF_LIFE_DAYS_DAYS_OPERA_PRED>
4.08764

> <BOILING_POINT_DEGC_OPERA_PRED>
265.364

> <HENRYS_LAW_ATM-M3/MOLE_OPERA_PRED>
1.04142e-07

> <OPERA_KM_DAYS_OPERA_PRED>
0.203005

> <OCTANOL_AIR_PARTITION_COEFF_LOGKOA_OPERA_PRED>
7.9405

> <SOIL_ADSORPTION_COEFFICIENT_KOC_L/KG_OPERA_PRED>
139.493

> <OCTANOL_WATER_PARTITION_LOGP_OPERA_PRED>
1.42622

> <MELTING_POINT_DEGC_OPERA_PRED>
86.3951

> <VAPOR_PRESSURE_MMHG_OPERA_PRED>
6.69658e-05

> <WATER_SOLUBILITY_MOL/L_OPERA_PRED>
0.291459

> <TEST_BCF_TEST_PRED>
3.42768

> <BOILING_POINT_DEGC_TEST_PRED>
267.974

> <DENSITY_G/CM^3_TEST_PRED>
1.007

> <FLASH_POINT_DEGC_TEST_PRED>
134.24

> <MELTING_POINT_DEGC_TEST_PRED>
106.769

> <SURFACE_TENSION_DYN/CM_TEST_PRED>
33.427

> <THERMAL_CONDUCTIVITY_MW/(M*K)_TEST_PRED>
181.998

> <VISCOSITY_CP_CP_TEST_PRED>
10.4232

> <VAPOR_PRESSURE_MMHG_TEST_PRED>
0.000372392

> <WATER_SOLUBILITY_MOL/L_TEST_PRED>
0.034914

> <AEGLVALUES>
0

> <ALGALTOX>
0

> <ARCHEMICALS>
0

> <ATSDRLST>
0

> <BISPHENOLS>
0

> <OEHHA>
0

> <CERAPP>
0

> <FUNNAMES>
0

> <KWRSJERPS>
0

> <EPACONS>
0

> <IRIS>
0

> <EPAHFR>
0

> <EUCOSMETICS>
0

> <FRENCHLIST>
0

> <HEROMAP>
0

> <ITNANTIBIOTIC>
0

> <KEMIMARKET>
0

> <MASSBANKREF>
0

> <MASSBANKEUSP>
0

> <NEMILIST>
0

> <NATADB>
0

> <NIOSHIDLH>
0

> <NIOSHICSC>
0

> <NIOSHNPG>
0

> <NIOSHSKIN>
0

> <NORMANCT15>
0

> <SFISHFLUORO>
0

> <NORMANPRI>
0

> <NORMANEWS>
0

> <PFASTRIER>
0

> <SWISSPHARMA>
0

> <PPRTVWEB>
0

> <STOCKHOLM>
0

> <STOFFIDENT>
0

> <SCDM>
0

> <EAWAGSURF>
0

> <SWISSPEST>
0

> <TOX21SL>
0

> <TOXCAST>
0

> <TOXCAST_E1K>
0

> <TOXCAST_PH1V2>
0

> <TOXCAST_PH2>
0

> <TOXCAST_PH3>
0

> <TOXCAST_PHASEI>
0

> <TOXCAST_PHASEII>
0

> <TOXCAST_PHASEIII>
0

> <TRIRELEASE>
0

> <TSCASURF>
0

> <UJIBADE>
0

> <ATHENSSUS>
0

> <UATHTARGETS>
0

$$$$

  Mrv1533009301519062D          

  0  0  0     0  0            999 V3000
M  V30 BEGIN CTAB
M  V30 COUNTS 12 12 0 0 0
M  V30 BEGIN ATOM
M  V30 1 N 5.7475 0.3851 0 0
M  V30 2 N 5.7475 -4.2351 0 0
M  V30 3 C 7.0812 2.6951 0 0
M  V30 4 C 7.0812 4.2351 0 0
M  V30 5 C 5.7475 1.9251 0 0
M  V30 6 C 8.4149 5.0051 0 0
M  V30 7 C 4.4137 -0.3851 0 0
M  V30 8 C 4.4137 -1.9251 0 0
M  V30 9 C 3.08 -2.6951 0 0
M  V30 10 C 5.7475 -2.6951 0 0
M  V30 11 C 3.08 -4.2351 0 0
M  V30 12 C 4.4137 -5.0051 0 0
M  V30 END ATOM
M  V30 BEGIN BOND
M  V30 1 1 1 5
M  V30 2 2 1 7
M  V30 3 1 2 10
M  V30 4 2 2 12
M  V30 5 1 3 4
M  V30 6 1 3 5
M  V30 7 1 4 6
M  V30 8 1 7 8
M  V30 9 1 8 9
M  V30 10 2 8 10
M  V30 11 2 9 11
M  V30 12 1 11 12
M  V30 END BOND
M  V30 END CTAB
M  END

> <INPUT>
C10H14N2

> <FOUND_BY>
MS Ready Formula

> <DTXCID_INDIVIDUAL_COMPONENT>
DTXCID30406915

> <FORMULA_INDIVIDUAL_COMPONENT>
C10H14N2

> <SMILES_INDIVIDUAL_COMPONENT>
CCCC\N=C\C1=CN=CC=C1

> <MAPPED_DTXSID>
DTXSID30456096

> <PREFERRED_NAME_DTXSID>
1-Butanamine, N-(3-pyridinylmethylene)-

> <CASRN_DTXSID>
55019-90-4

> <FORMULA_MAPPED_DTXSID>
C10H14N2

> <SMILES_MAPPED_DTXSID>
CCCC\N=C\C1=CN=CC=C1

> <MS_READY_SMILES>
CCCCN=CC1=CN=CC=C1

> <INCHI_STRING_DTXCID>
InChI=1S/C10H14N2/c1-2-3-6-11-8-10-5-4-7-12-9-10/h4-5,7-9H,2-3,6H2,1H3/b11-8+

> <INCHIKEY_DTXCID>
SJDRSAPTSDCMCW-DHZHZOJOSA-N

> <MONOISOTOPIC_MASS_DTXCID>
162.115698459

> <EXPOCAST_MEDIAN_EXPOSURE_PREDICTION_MG/KG-BW/DAY>
-

> <EXPOCAST>
0

> <NHANES>
0

> <DATA_SOURCES>
1

> <TOXVAL_DATA>
0

> <TOXCAST_PERCENT_ACTIVE>
-

> <TOXCAST_NUMBER_OF_ASSAYS/TOTAL>
-

> <NUMBER_OF_PUBMED_ARTICLES>
-

> <PUBCHEM_DATA_SOURCES>
10

> <CPDAT_COUNT>
-

> <ATMOSPHERIC_HYDROXYLATION_RATE_(AOH)_CM3/MOLECULE*SEC_OPERA_PRED>
3.3855e-11

> <BIOCONCENTRATION_FACTOR_OPERA_PRED>
14.1526

> <BIODEGRADATION_HALF_LIFE_DAYS_DAYS_OPERA_PRED>
3.34963

> <BOILING_POINT_DEGC_OPERA_PRED>
225.347

> <HENRYS_LAW_ATM-M3/MOLE_OPERA_PRED>
5.59933e-05

> <OPERA_KM_DAYS_OPERA_PRED>
3.00734

> <OCTANOL_AIR_PARTITION_COEFF_LOGKOA_OPERA_PRED>
5.00703

> <SOIL_ADSORPTION_COEFFICIENT_KOC_L/KG_OPERA_PRED>
151.265

> <OCTANOL_WATER_PARTITION_LOGP_OPERA_PRED>
1.57257

> <MELTING_POINT_DEGC_OPERA_PRED>
62.662

> <VAPOR_PRESSURE_MMHG_OPERA_PRED>
0.0153122

> <WATER_SOLUBILITY_MOL/L_OPERA_PRED>
0.179127

> <TEST_BCF_TEST_PRED>
-

> <BOILING_POINT_DEGC_TEST_PRED>
249.658

> <DENSITY_G/CM^3_TEST_PRED>
0.982

> <FLASH_POINT_DEGC_TEST_PRED>
121.288

> <MELTING_POINT_DEGC_TEST_PRED>
46.933

> <SURFACE_TENSION_DYN/CM_TEST_PRED>
-

> <THERMAL_CONDUCTIVITY_MW/(M*K)_TEST_PRED>
-

> <VISCOSITY_CP_CP_TEST_PRED>
-

> <VAPOR_PRESSURE_MMHG_TEST_PRED>
0.000739605

> <WATER_SOLUBILITY_MOL/L_TEST_PRED>
0.00535797

> <AEGLVALUES>
0

> <ALGALTOX>
0

> <ARCHEMICALS>
0

> <ATSDRLST>
0

> <BISPHENOLS>
0

> <OEHHA>
0

> <CERAPP>
0

> <FUNNAMES>
0

> <KWRSJERPS>
0

> <EPACONS>
0

> <IRIS>
0

> <EPAHFR>
0

> <EUCOSMETICS>
0

> <FRENCHLIST>
0

> <HEROMAP>
0

> <ITNANTIBIOTIC>
0

> <KEMIMARKET>
0

> <MASSBANKREF>
0

> <MASSBANKEUSP>
0

> <NEMILIST>
0

> <NATADB>
0

> <NIOSHIDLH>
0

> <NIOSHICSC>
0

> <NIOSHNPG>
0

> <NIOSHSKIN>
0

> <NORMANCT15>
0

> <SFISHFLUORO>
0

> <NORMANPRI>
0

> <NORMANEWS>
0

> <PFASTRIER>
0

> <SWISSPHARMA>
0

> <PPRTVWEB>
0

> <STOCKHOLM>
0

> <STOFFIDENT>
0

> <SCDM>
0

> <EAWAGSURF>
0

> <SWISSPEST>
0

> <TOX21SL>
0

> <TOXCAST>
0

> <TOXCAST_E1K>
0

> <TOXCAST_PH1V2>
0

> <TOXCAST_PH2>
0

> <TOXCAST_PH3>
0

> <TOXCAST_PHASEI>
0

> <TOXCAST_PHASEII>
0

> <TOXCAST_PHASEIII>
0

> <TRIRELEASE>
0

> <TSCASURF>
0

> <UJIBADE>
0

> <ATHENSSUS>
0

> <UATHTARGETS>
0

$$$$

  Mrv1533009301519072D          

  0  0  0     0  0            999 V3000
M  V30 BEGIN CTAB
M  V30 COUNTS 12 13 0 0 1
M  V30 BEGIN ATOM
M  V30 1 N 5.7475 1.7692 0 0
M  V30 2 N 8.1848 2.2872 0 0
M  V30 3 C 5.9086 3.3008 0 0
M  V30 4 C 7.1544 1.1428 0 0
M  V30 5 C 7.4148 3.621 0 0
M  V30 6 C 4.4137 0.9992 0 0
M  V30 7 C 4.4137 -0.5408 0 0
M  V30 8 C 3.08 -1.311 0 0
M  V30 9 C 5.7475 -1.311 0 0
M  V30 10 C 3.08 -2.851 0 0
M  V30 11 C 5.7475 -2.851 0 0
M  V30 12 C 4.4137 -3.621 0 0
M  V30 END ATOM
M  V30 BEGIN BOND
M  V30 1 1 1 3
M  V30 2 1 1 4
M  V30 3 1 1 6
M  V30 4 1 2 4
M  V30 5 1 2 5
M  V30 6 1 3 5
M  V30 7 1 6 7
M  V30 8 2 7 8
M  V30 9 1 7 9
M  V30 10 1 8 10
M  V30 11 2 9 11
M  V30 12 2 10 12
M  V30 13 1 11 12
M  V30 END BOND
M  V30 END CTAB
M  END

> <INPUT>
C10H14N2

> <FOUND_BY>
MS Ready Formula

> <DTXCID_INDIVIDUAL_COMPONENT>
DTXCID30409461

> <FORMULA_INDIVIDUAL_COMPONENT>
C10H14N2

> <SMILES_INDIVIDUAL_COMPONENT>
C(N1CCNC1)C1=CC=CC=C1

> <MAPPED_DTXSID>
DTXSID40458642

> <PREFERRED_NAME_DTXSID>
1-benzylimidazolidine

> <CASRN_DTXSID>
630126-04-4

> <FORMULA_MAPPED_DTXSID>
C10H14N2

> <SMILES_MAPPED_DTXSID>
C(N1CCNC1)C1=CC=CC=C1

> <MS_READY_SMILES>
C(N1CCNC1)C1=CC=CC=C1

> <INCHI_STRING_DTXCID>
InChI=1S/C10H14N2/c1-2-4-10(5-3-1)8-12-7-6-11-9-12/h1-5,11H,6-9H2

> <INCHIKEY_DTXCID>
JXOLTCZDUFJFRL-UHFFFAOYSA-N

> <MONOISOTOPIC_MASS_DTXCID>
162.115698459

> <EXPOCAST_MEDIAN_EXPOSURE_PREDICTION_MG/KG-BW/DAY>
-

> <EXPOCAST>
0

> <NHANES>
0

> <DATA_SOURCES>
1

> <TOXVAL_DATA>
0

> <TOXCAST_PERCENT_ACTIVE>
-

> <TOXCAST_NUMBER_OF_ASSAYS/TOTAL>
-

> <NUMBER_OF_PUBMED_ARTICLES>
-

> <PUBCHEM_DATA_SOURCES>
21

> <CPDAT_COUNT>
-

> <ATMOSPHERIC_HYDROXYLATION_RATE_(AOH)_CM3/MOLECULE*SEC_OPERA_PRED>
1.79757e-11

> <BIOCONCENTRATION_FACTOR_OPERA_PRED>
7.51175

> <BIODEGRADATION_HALF_LIFE_DAYS_DAYS_OPERA_PRED>
3.86452

> <BOILING_POINT_DEGC_OPERA_PRED>
287.482

> <HENRYS_LAW_ATM-M3/MOLE_OPERA_PRED>
2.63108e-07

> <OPERA_KM_DAYS_OPERA_PRED>
0.463377

> <OCTANOL_AIR_PARTITION_COEFF_LOGKOA_OPERA_PRED>
7.76418

> <SOIL_ADSORPTION_COEFFICIENT_KOC_L/KG_OPERA_PRED>
114.343

> <OCTANOL_WATER_PARTITION_LOGP_OPERA_PRED>
1.17751

> <MELTING_POINT_DEGC_OPERA_PRED>
79.1364

> <VAPOR_PRESSURE_MMHG_OPERA_PRED>
0.00519489

> <WATER_SOLUBILITY_MOL/L_OPERA_PRED>
0.373022

> <TEST_BCF_TEST_PRED>
6.38263

> <BOILING_POINT_DEGC_TEST_PRED>
262.933

> <DENSITY_G/CM^3_TEST_PRED>
1.021

> <FLASH_POINT_DEGC_TEST_PRED>
110.205

> <MELTING_POINT_DEGC_TEST_PRED>
34.751

> <SURFACE_TENSION_DYN/CM_TEST_PRED>
38.158

> <THERMAL_CONDUCTIVITY_MW/(M*K)_TEST_PRED>
162.87

> <VISCOSITY_CP_CP_TEST_PRED>
9.63829

> <VAPOR_PRESSURE_MMHG_TEST_PRED>
0.00399025

> <WATER_SOLUBILITY_MOL/L_TEST_PRED>
0.0959401

> <AEGLVALUES>
0

> <ALGALTOX>
0

> <ARCHEMICALS>
0

> <ATSDRLST>
0

> <BISPHENOLS>
0

> <OEHHA>
0

> <CERAPP>
0

> <FUNNAMES>
0

> <KWRSJERPS>
0

> <EPACONS>
0

> <IRIS>
0

> <EPAHFR>
0

> <EUCOSMETICS>
0

> <FRENCHLIST>
0

> <HEROMAP>
0

> <ITNANTIBIOTIC>
0

> <KEMIMARKET>
0

> <MASSBANKREF>
0

> <MASSBANKEUSP>
0

> <NEMILIST>
0

> <NATADB>
0

> <NIOSHIDLH>
0

> <NIOSHICSC>
0

> <NIOSHNPG>
0

> <NIOSHSKIN>
0

> <NORMANCT15>
0

> <SFISHFLUORO>
0

> <NORMANPRI>
0

> <NORMANEWS>
0

> <PFASTRIER>
0

> <SWISSPHARMA>
0

> <PPRTVWEB>
0

> <STOCKHOLM>
0

> <STOFFIDENT>
0

> <SCDM>
0

> <EAWAGSURF>
0

> <SWISSPEST>
0

> <TOX21SL>
0

> <TOXCAST>
0

> <TOXCAST_E1K>
0

> <TOXCAST_PH1V2>
0

> <TOXCAST_PH2>
0

> <TOXCAST_PH3>
0

> <TOXCAST_PHASEI>
0

> <TOXCAST_PHASEII>
0

> <TOXCAST_PHASEIII>
0

> <TRIRELEASE>
0

> <TSCASURF>
0

> <UJIBADE>
0

> <ATHENSSUS>
0

> <UATHTARGETS>
0

$$$$
415482
  Mrv1611110031618152D          

  0  0  0     0  0            999 V3000
M  V30 BEGIN CTAB
M  V30 COUNTS 12 13 0 0 0
M  V30 BEGIN ATOM
M  V30 1 N 1.1303 -2.7883 0 0
M  V30 2 C 1.1303 -1.2483 0 0
M  V30 3 C -0.2034 -0.4783 0 0
M  V30 4 C -0.2034 1.0617 0 0
M  V30 5 C 1.1303 1.8317 0 0
M  V30 6 C 2.464 1.0617 0 0
M  V30 7 C 2.464 -0.4783 0 0
M  V30 8 C 2.3762 -3.6934 0 0
M  V30 9 C 1.9003 -5.158 0 0
M  V30 10 C 0.3603 -5.158 0 0
M  V30 11 N -0.5449 -6.4039 0 0
M  V30 12 C -0.1156 -3.6934 0 0
M  V30 END ATOM
M  V30 BEGIN BOND
M  V30 1 1 1 2
M  V30 2 2 2 3
M  V30 3 1 3 4
M  V30 4 2 4 5
M  V30 5 1 5 6
M  V30 6 2 6 7
M  V30 7 1 7 2
M  V30 8 1 1 8
M  V30 9 1 8 9
M  V30 10 1 9 10
M  V30 11 1 10 11
M  V30 12 1 10 12
M  V30 13 1 12 1
M  V30 END BOND
M  V30 END CTAB
M  END

> <INPUT>
C10H14N2

> <FOUND_BY>
MS Ready Formula

> <DTXCID_INDIVIDUAL_COMPONENT>
DTXCID601005631

> <FORMULA_INDIVIDUAL_COMPONENT>
C10H14N2

> <SMILES_INDIVIDUAL_COMPONENT>
NC1CCN(C1)C1=CC=CC=C1

> <MAPPED_DTXSID>
DTXSID00464663

> <PREFERRED_NAME_DTXSID>
1-phenylpyrrolidin-3-amine

> <CASRN_DTXSID>
18471-41-5

> <FORMULA_MAPPED_DTXSID>
C10H14N2

> <SMILES_MAPPED_DTXSID>
NC1CCN(C1)C1=CC=CC=C1

> <MS_READY_SMILES>
NC1CCN(C1)C1=CC=CC=C1

> <INCHI_STRING_DTXCID>
InChI=1S/C10H14N2/c11-9-6-7-12(8-9)10-4-2-1-3-5-10/h1-5,9H,6-8,11H2

> <INCHIKEY_DTXCID>
SFMJIPNTKASYFH-UHFFFAOYSA-N

> <MONOISOTOPIC_MASS_DTXCID>
162.115698459

> <EXPOCAST_MEDIAN_EXPOSURE_PREDICTION_MG/KG-BW/DAY>
-

> <EXPOCAST>
0

> <NHANES>
0

> <DATA_SOURCES>
1

> <TOXVAL_DATA>
0

> <TOXCAST_PERCENT_ACTIVE>
-

> <TOXCAST_NUMBER_OF_ASSAYS/TOTAL>
-

> <NUMBER_OF_PUBMED_ARTICLES>
-

> <PUBCHEM_DATA_SOURCES>
38

> <CPDAT_COUNT>
-

> <ATMOSPHERIC_HYDROXYLATION_RATE_(AOH)_CM3/MOLECULE*SEC_OPERA_PRED>
1.86531e-11

> <BIOCONCENTRATION_FACTOR_OPERA_PRED>
7.56499

> <BIODEGRADATION_HALF_LIFE_DAYS_DAYS_OPERA_PRED>
3.35067

> <BOILING_POINT_DEGC_OPERA_PRED>
288.761

> <HENRYS_LAW_ATM-M3/MOLE_OPERA_PRED>
7.19684e-07

> <OPERA_KM_DAYS_OPERA_PRED>
0.279703

> <OCTANOL_AIR_PARTITION_COEFF_LOGKOA_OPERA_PRED>
8.60226

> <SOIL_ADSORPTION_COEFFICIENT_KOC_L/KG_OPERA_PRED>
164.256

> <OCTANOL_WATER_PARTITION_LOGP_OPERA_PRED>
0.947533

> <MELTING_POINT_DEGC_OPERA_PRED>
99.3172

> <VAPOR_PRESSURE_MMHG_OPERA_PRED>
0.00296649

> <WATER_SOLUBILITY_MOL/L_OPERA_PRED>
0.10845

> <TEST_BCF_TEST_PRED>
11.0154

> <BOILING_POINT_DEGC_TEST_PRED>
277.944

> <DENSITY_G/CM^3_TEST_PRED>
1.043

> <FLASH_POINT_DEGC_TEST_PRED>
133.41

> <MELTING_POINT_DEGC_TEST_PRED>
72.548

> <SURFACE_TENSION_DYN/CM_TEST_PRED>
35.533

> <THERMAL_CONDUCTIVITY_MW/(M*K)_TEST_PRED>
169.096

> <VISCOSITY_CP_CP_TEST_PRED>
6.68344

> <VAPOR_PRESSURE_MMHG_TEST_PRED>
0.00169434

> <WATER_SOLUBILITY_MOL/L_TEST_PRED>
0.0260615

> <AEGLVALUES>
0

> <ALGALTOX>
0

> <ARCHEMICALS>
0

> <ATSDRLST>
0

> <BISPHENOLS>
0

> <OEHHA>
0

> <CERAPP>
0

> <FUNNAMES>
0

> <KWRSJERPS>
0

> <EPACONS>
0

> <IRIS>
0

> <EPAHFR>
0

> <EUCOSMETICS>
0

> <FRENCHLIST>
0

> <HEROMAP>
0

> <ITNANTIBIOTIC>
0

> <KEMIMARKET>
0

> <MASSBANKREF>
0

> <MASSBANKEUSP>
0

> <NEMILIST>
0

> <NATADB>
0

> <NIOSHIDLH>
0

> <NIOSHICSC>
0

> <NIOSHNPG>
0

> <NIOSHSKIN>
0

> <NORMANCT15>
0

> <SFISHFLUORO>
0

> <NORMANPRI>
0

> <NORMANEWS>
0

> <PFASTRIER>
0

> <SWISSPHARMA>
0

> <PPRTVWEB>
0

> <STOCKHOLM>
0

> <STOFFIDENT>
0

> <SCDM>
0

> <EAWAGSURF>
0

> <SWISSPEST>
0

> <TOX21SL>
0

> <TOXCAST>
0

> <TOXCAST_E1K>
0

> <TOXCAST_PH1V2>
0

> <TOXCAST_PH2>
0

> <TOXCAST_PH3>
0

> <TOXCAST_PHASEI>
0

> <TOXCAST_PHASEII>
0

> <TOXCAST_PHASEIII>
0

> <TRIRELEASE>
0

> <TSCASURF>
0

> <UJIBADE>
0

> <ATHENSSUS>
0

> <UATHTARGETS>
0

$$$$
415826
  Mrv1611110031618152D          

  0  0  0     0  0            999 V3000
M  V30 BEGIN CTAB
M  V30 COUNTS 12 13 0 0 0
M  V30 BEGIN ATOM
M  V30 1 N -0.001 -5.9156 0 0
M  V30 2 C -1.541 -5.9156 0 0
M  V30 3 C -2.0169 -4.451 0 0
M  V30 4 C -0.771 -3.5458 0 0
M  V30 5 N -0.771 -2.0058 0 0
M  V30 6 C 0.5627 -1.2358 0 0
M  V30 7 C 0.5627 0.3042 0 0
M  V30 8 C 1.8963 1.0742 0 0
M  V30 9 C 3.23 0.3042 0 0
M  V30 10 C 3.23 -1.2358 0 0
M  V30 11 C 1.8963 -2.0058 0 0
M  V30 12 C 0.4749 -4.451 0 0
M  V30 END ATOM
M  V30 BEGIN BOND
M  V30 1 1 1 2
M  V30 2 1 2 3
M  V30 3 1 3 4
M  V30 4 1 4 5
M  V30 5 1 5 6
M  V30 6 2 6 7
M  V30 7 1 7 8
M  V30 8 2 8 9
M  V30 9 1 9 10
M  V30 10 2 10 11
M  V30 11 1 11 6
M  V30 12 1 4 12
M  V30 13 1 12 1
M  V30 END BOND
M  V30 END CTAB
M  END

> <INPUT>
C10H14N2

> <FOUND_BY>
MS Ready Formula

> <DTXCID_INDIVIDUAL_COMPONENT>
DTXCID001005714

> <FORMULA_INDIVIDUAL_COMPONENT>
C10H14N2

> <SMILES_INDIVIDUAL_COMPONENT>
C1CC(CN1)NC1=CC=CC=C1

> <MAPPED_DTXSID>
DTXSID30465007

> <PREFERRED_NAME_DTXSID>
N-phenylpyrrolidin-3-amine

> <CASRN_DTXSID>
17741-13-8

> <FORMULA_MAPPED_DTXSID>
C10H14N2

> <SMILES_MAPPED_DTXSID>
C1CC(CN1)NC1=CC=CC=C1

> <MS_READY_SMILES>
C1CC(CN1)NC1=CC=CC=C1

> <INCHI_STRING_DTXCID>
InChI=1S/C10H14N2/c1-2-4-9(5-3-1)12-10-6-7-11-8-10/h1-5,10-12H,6-8H2

> <INCHIKEY_DTXCID>
AAFUQJGCJNFFRT-UHFFFAOYSA-N

> <MONOISOTOPIC_MASS_DTXCID>
162.115698459

> <EXPOCAST_MEDIAN_EXPOSURE_PREDICTION_MG/KG-BW/DAY>
-

> <EXPOCAST>
0

> <NHANES>
0

> <DATA_SOURCES>
1

> <TOXVAL_DATA>
0

> <TOXCAST_PERCENT_ACTIVE>
-

> <TOXCAST_NUMBER_OF_ASSAYS/TOTAL>
-

> <NUMBER_OF_PUBMED_ARTICLES>
-

> <PUBCHEM_DATA_SOURCES>
34

> <CPDAT_COUNT>
-

> <ATMOSPHERIC_HYDROXYLATION_RATE_(AOH)_CM3/MOLECULE*SEC_OPERA_PRED>
1.88181e-11

> <BIOCONCENTRATION_FACTOR_OPERA_PRED>
11.9671

> <BIODEGRADATION_HALF_LIFE_DAYS_DAYS_OPERA_PRED>
2.65951

> <BOILING_POINT_DEGC_OPERA_PRED>
266.335

> <HENRYS_LAW_ATM-M3/MOLE_OPERA_PRED>
3.56976e-08

> <OPERA_KM_DAYS_OPERA_PRED>
0.159169

> <OCTANOL_AIR_PARTITION_COEFF_LOGKOA_OPERA_PRED>
7.939

> <SOIL_ADSORPTION_COEFFICIENT_KOC_L/KG_OPERA_PRED>
139.823

> <OCTANOL_WATER_PARTITION_LOGP_OPERA_PRED>
0.747212

> <MELTING_POINT_DEGC_OPERA_PRED>
93.6448

> <VAPOR_PRESSURE_MMHG_OPERA_PRED>
0.00865692

> <WATER_SOLUBILITY_MOL/L_OPERA_PRED>
0.163072

> <TEST_BCF_TEST_PRED>
7.24436

> <BOILING_POINT_DEGC_TEST_PRED>
278.897

> <DENSITY_G/CM^3_TEST_PRED>
1.034

> <FLASH_POINT_DEGC_TEST_PRED>
145.851

> <MELTING_POINT_DEGC_TEST_PRED>
58.315

> <SURFACE_TENSION_DYN/CM_TEST_PRED>
39.902

> <THERMAL_CONDUCTIVITY_MW/(M*K)_TEST_PRED>
172.702

> <VISCOSITY_CP_CP_TEST_PRED>
15.1705

> <VAPOR_PRESSURE_MMHG_TEST_PRED>
0.000204644

> <WATER_SOLUBILITY_MOL/L_TEST_PRED>
0.0314775

> <AEGLVALUES>
0

> <ALGALTOX>
0

> <ARCHEMICALS>
0

> <ATSDRLST>
0

> <BISPHENOLS>
0

> <OEHHA>
0

> <CERAPP>
0

> <FUNNAMES>
0

> <KWRSJERPS>
0

> <EPACONS>
0

> <IRIS>
0

> <EPAHFR>
0

> <EUCOSMETICS>
0

> <FRENCHLIST>
0

> <HEROMAP>
0

> <ITNANTIBIOTIC>
0

> <KEMIMARKET>
0

> <MASSBANKREF>
0

> <MASSBANKEUSP>
0

> <NEMILIST>
0

> <NATADB>
0

> <NIOSHIDLH>
0

> <NIOSHICSC>
0

> <NIOSHNPG>
0

> <NIOSHSKIN>
0

> <NORMANCT15>
0

> <SFISHFLUORO>
0

> <NORMANPRI>
0

> <NORMANEWS>
0

> <PFASTRIER>
0

> <SWISSPHARMA>
0

> <PPRTVWEB>
0

> <STOCKHOLM>
0

> <STOFFIDENT>
0

> <SCDM>
0

> <EAWAGSURF>
0

> <SWISSPEST>
0

> <TOX21SL>
0

> <TOXCAST>
0

> <TOXCAST_E1K>
0

> <TOXCAST_PH1V2>
0

> <TOXCAST_PH2>
0

> <TOXCAST_PH3>
0

> <TOXCAST_PHASEI>
0

> <TOXCAST_PHASEII>
0

> <TOXCAST_PHASEIII>
0

> <TRIRELEASE>
0

> <TSCASURF>
0

> <UJIBADE>
0

> <ATHENSSUS>
0

> <UATHTARGETS>
0

$$$$

  Mrv1533009301519102D          

  0  0  0     0  0            999 V3000
M  V30 BEGIN CTAB
M  V30 COUNTS 12 13 0 0 0
M  V30 BEGIN ATOM
M  V30 1 N 4.4137 0.77 0 0
M  V30 2 N 5.7475 -3.08 0 0
M  V30 3 C 4.4137 3.85 0 0
M  V30 4 C 3.08 3.08 0 0
M  V30 5 C 5.7475 3.08 0 0
M  V30 6 C 3.08 1.54 0 0
M  V30 7 C 5.7475 1.54 0 0
M  V30 8 C 4.4137 -0.77 0 0
M  V30 9 C 3.08 -1.54 0 0
M  V30 10 C 5.7475 -1.54 0 0
M  V30 11 C 3.08 -3.08 0 0
M  V30 12 C 4.4137 -3.85 0 0
M  V30 END ATOM
M  V30 BEGIN BOND
M  V30 1 1 1 6
M  V30 2 1 1 7
M  V30 3 1 1 8
M  V30 4 1 2 10
M  V30 5 2 2 12
M  V30 6 1 3 4
M  V30 7 1 3 5
M  V30 8 1 4 6
M  V30 9 1 5 7
M  V30 10 1 8 9
M  V30 11 2 8 10
M  V30 12 2 9 11
M  V30 13 1 11 12
M  V30 END BOND
M  V30 END CTAB
M  END

> <INPUT>
C10H14N2

> <FOUND_BY>
MS Ready Formula

> <DTXCID_INDIVIDUAL_COMPONENT>
DTXCID60418768

> <FORMULA_INDIVIDUAL_COMPONENT>
C10H14N2

> <SMILES_INDIVIDUAL_COMPONENT>
C1CCN(CC1)C1=CN=CC=C1

> <MAPPED_DTXSID>
DTXSID70467949

> <PREFERRED_NAME_DTXSID>
3-(Piperidin-1-yl)pyridine

> <CASRN_DTXSID>
90872-73-4

> <FORMULA_MAPPED_DTXSID>
C10H14N2

> <SMILES_MAPPED_DTXSID>
C1CCN(CC1)C1=CN=CC=C1

> <MS_READY_SMILES>
C1CCN(CC1)C1=CN=CC=C1

> <INCHI_STRING_DTXCID>
InChI=1S/C10H14N2/c1-2-7-12(8-3-1)10-5-4-6-11-9-10/h4-6,9H,1-3,7-8H2

> <INCHIKEY_DTXCID>
RWNRPQYVWJSAPE-UHFFFAOYSA-N

> <MONOISOTOPIC_MASS_DTXCID>
162.115698459

> <EXPOCAST_MEDIAN_EXPOSURE_PREDICTION_MG/KG-BW/DAY>
-

> <EXPOCAST>
0

> <NHANES>
0

> <DATA_SOURCES>
1

> <TOXVAL_DATA>
0

> <TOXCAST_PERCENT_ACTIVE>
-

> <TOXCAST_NUMBER_OF_ASSAYS/TOTAL>
-

> <NUMBER_OF_PUBMED_ARTICLES>
-

> <PUBCHEM_DATA_SOURCES>
29

> <CPDAT_COUNT>
-

> <ATMOSPHERIC_HYDROXYLATION_RATE_(AOH)_CM3/MOLECULE*SEC_OPERA_PRED>
4.29875e-11

> <BIOCONCENTRATION_FACTOR_OPERA_PRED>
12.8394

> <BIODEGRADATION_HALF_LIFE_DAYS_DAYS_OPERA_PRED>
3.86577

> <BOILING_POINT_DEGC_OPERA_PRED>
257.871

> <HENRYS_LAW_ATM-M3/MOLE_OPERA_PRED>
6.68739e-06

> <OPERA_KM_DAYS_OPERA_PRED>
5.99479

> <OCTANOL_AIR_PARTITION_COEFF_LOGKOA_OPERA_PRED>
6.34764

> <SOIL_ADSORPTION_COEFFICIENT_KOC_L/KG_OPERA_PRED>
167.875

> <OCTANOL_WATER_PARTITION_LOGP_OPERA_PRED>
1.86738

> <MELTING_POINT_DEGC_OPERA_PRED>
124.613

> <VAPOR_PRESSURE_MMHG_OPERA_PRED>
0.00351995

> <WATER_SOLUBILITY_MOL/L_OPERA_PRED>
0.816723

> <TEST_BCF_TEST_PRED>
14.3549

> <BOILING_POINT_DEGC_TEST_PRED>
269.912

> <DENSITY_G/CM^3_TEST_PRED>
1.036

> <FLASH_POINT_DEGC_TEST_PRED>
105.549

> <MELTING_POINT_DEGC_TEST_PRED>
24.999

> <SURFACE_TENSION_DYN/CM_TEST_PRED>
37.005

> <THERMAL_CONDUCTIVITY_MW/(M*K)_TEST_PRED>
147.697

> <VISCOSITY_CP_CP_TEST_PRED>
4.52898

> <VAPOR_PRESSURE_MMHG_TEST_PRED>
0.0246037

> <WATER_SOLUBILITY_MOL/L_TEST_PRED>
0.021928

> <AEGLVALUES>
0

> <ALGALTOX>
0

> <ARCHEMICALS>
0

> <ATSDRLST>
0

> <BISPHENOLS>
0

> <OEHHA>
0

> <CERAPP>
0

> <FUNNAMES>
0

> <KWRSJERPS>
0

> <EPACONS>
0

> <IRIS>
0

> <EPAHFR>
0

> <EUCOSMETICS>
0

> <FRENCHLIST>
0

> <HEROMAP>
0

> <ITNANTIBIOTIC>
0

> <KEMIMARKET>
0

> <MASSBANKREF>
0

> <MASSBANKEUSP>
0

> <NEMILIST>
0

> <NATADB>
0

> <NIOSHIDLH>
0

> <NIOSHICSC>
0

> <NIOSHNPG>
0

> <NIOSHSKIN>
0

> <NORMANCT15>
0

> <SFISHFLUORO>
0

> <NORMANPRI>
0

> <NORMANEWS>
0

> <PFASTRIER>
0

> <SWISSPHARMA>
0

> <PPRTVWEB>
0

> <STOCKHOLM>
0

> <STOFFIDENT>
0

> <SCDM>
0

> <EAWAGSURF>
0

> <SWISSPEST>
0

> <TOX21SL>
0

> <TOXCAST>
0

> <TOXCAST_E1K>
0

> <TOXCAST_PH1V2>
0

> <TOXCAST_PH2>
0

> <TOXCAST_PH3>
0

> <TOXCAST_PHASEI>
0

> <TOXCAST_PHASEII>
0

> <TOXCAST_PHASEIII>
0

> <TRIRELEASE>
0

> <TSCASURF>
0

> <UJIBADE>
0

> <ATHENSSUS>
0

> <UATHTARGETS>
0

$$$$

  Mrv1533009301519122D          

  0  0  0     0  0            999 V3000
M  V30 BEGIN CTAB
M  V30 COUNTS 12 13 0 0 1
M  V30 BEGIN ATOM
M  V30 1 N 5.2496 -1.445 0 0
M  V30 2 N 5.2496 2.0154 0 0
M  V30 3 C 3.7483 -1.1023 0 0
M  V30 4 C 3.08 0.2852 0 0
M  V30 5 C 3.7483 1.6727 0 0
M  V30 6 C 6.4534 -0.4848 0 0
M  V30 7 C 6.4534 1.0552 0 0
M  V30 8 C 5.5922 -2.9463 0 0
M  V30 9 C 7.8303 -1.3082 0 0
M  V30 10 C 7.8303 1.8786 0 0
M  V30 11 C 9.2254 -0.5169 0 0
M  V30 12 C 9.2254 1.0873 0 0
M  V30 END ATOM
M  V30 BEGIN BOND
M  V30 1 1 1 3
M  V30 2 1 1 6
M  V30 3 1 1 8
M  V30 4 1 2 5
M  V30 5 1 2 7
M  V30 6 1 3 4
M  V30 7 1 4 5
M  V30 8 1 6 7
M  V30 9 2 6 9
M  V30 10 2 7 10
M  V30 11 1 9 11
M  V30 12 1 10 12
M  V30 13 2 11 12
M  V30 END BOND
M  V30 END CTAB
M  END

> <INPUT>
C10H14N2

> <FOUND_BY>
MS Ready Formula

> <DTXCID_INDIVIDUAL_COMPONENT>
DTXCID70425625

> <FORMULA_INDIVIDUAL_COMPONENT>
C10H14N2

> <SMILES_INDIVIDUAL_COMPONENT>
CN1CCCNC2=CC=CC=C12

> <MAPPED_DTXSID>
DTXSID30474811

> <PREFERRED_NAME_DTXSID>
1-Methyl-2,3,4,5-tetrahydro-1H-1,5-benzodiazepine

> <CASRN_DTXSID>
32900-36-0

> <FORMULA_MAPPED_DTXSID>
C10H14N2

> <SMILES_MAPPED_DTXSID>
CN1CCCNC2=CC=CC=C12

> <MS_READY_SMILES>
CN1CCCNC2=CC=CC=C12

> <INCHI_STRING_DTXCID>
InChI=1S/C10H14N2/c1-12-8-4-7-11-9-5-2-3-6-10(9)12/h2-3,5-6,11H,4,7-8H2,1H3

> <INCHIKEY_DTXCID>
QTUHHZFSIDSGRC-UHFFFAOYSA-N

> <MONOISOTOPIC_MASS_DTXCID>
162.115698459

> <EXPOCAST_MEDIAN_EXPOSURE_PREDICTION_MG/KG-BW/DAY>
-

> <EXPOCAST>
0

> <NHANES>
0

> <DATA_SOURCES>
1

> <TOXVAL_DATA>
0

> <TOXCAST_PERCENT_ACTIVE>
-

> <TOXCAST_NUMBER_OF_ASSAYS/TOTAL>
-

> <NUMBER_OF_PUBMED_ARTICLES>
-

> <PUBCHEM_DATA_SOURCES>
27

> <CPDAT_COUNT>
-

> <ATMOSPHERIC_HYDROXYLATION_RATE_(AOH)_CM3/MOLECULE*SEC_OPERA_PRED>
1.83257e-11

> <BIOCONCENTRATION_FACTOR_OPERA_PRED>
7.99246

> <BIODEGRADATION_HALF_LIFE_DAYS_DAYS_OPERA_PRED>
3.64706

> <BOILING_POINT_DEGC_OPERA_PRED>
296.81

> <HENRYS_LAW_ATM-M3/MOLE_OPERA_PRED>
2.73508e-07

> <OPERA_KM_DAYS_OPERA_PRED>
0.496016

> <OCTANOL_AIR_PARTITION_COEFF_LOGKOA_OPERA_PRED>
8.60975

> <SOIL_ADSORPTION_COEFFICIENT_KOC_L/KG_OPERA_PRED>
122.736

> <OCTANOL_WATER_PARTITION_LOGP_OPERA_PRED>
1.96831

> <MELTING_POINT_DEGC_OPERA_PRED>
111.467

> <VAPOR_PRESSURE_MMHG_OPERA_PRED>
0.0029998

> <WATER_SOLUBILITY_MOL/L_OPERA_PRED>
0.853869

> <TEST_BCF_TEST_PRED>
22.08

> <BOILING_POINT_DEGC_TEST_PRED>
281.075

> <DENSITY_G/CM^3_TEST_PRED>
1.06

> <FLASH_POINT_DEGC_TEST_PRED>
123.013

> <MELTING_POINT_DEGC_TEST_PRED>
76.868

> <SURFACE_TENSION_DYN/CM_TEST_PRED>
-

> <THERMAL_CONDUCTIVITY_MW/(M*K)_TEST_PRED>
153.131

> <VISCOSITY_CP_CP_TEST_PRED>
7.39605

> <VAPOR_PRESSURE_MMHG_TEST_PRED>
0.00685488

> <WATER_SOLUBILITY_MOL/L_TEST_PRED>
0.0102329

> <AEGLVALUES>
0

> <ALGALTOX>
0

> <ARCHEMICALS>
0

> <ATSDRLST>
0

> <BISPHENOLS>
0

> <OEHHA>
0

> <CERAPP>
0

> <FUNNAMES>
0

> <KWRSJERPS>
0

> <EPACONS>
0

> <IRIS>
0

> <EPAHFR>
0

> <EUCOSMETICS>
0

> <FRENCHLIST>
0

> <HEROMAP>
0

> <ITNANTIBIOTIC>
0

> <KEMIMARKET>
0

> <MASSBANKREF>
0

> <MASSBANKEUSP>
0

> <NEMILIST>
0

> <NATADB>
0

> <NIOSHIDLH>
0

> <NIOSHICSC>
0

> <NIOSHNPG>
0

> <NIOSHSKIN>
0

> <NORMANCT15>
0

> <SFISHFLUORO>
0

> <NORMANPRI>
0

> <NORMANEWS>
0

> <PFASTRIER>
0

> <SWISSPHARMA>
0

> <PPRTVWEB>
0

> <STOCKHOLM>
0

> <STOFFIDENT>
0

> <SCDM>
0

> <EAWAGSURF>
0

> <SWISSPEST>
0

> <TOX21SL>
0

> <TOXCAST>
0

> <TOXCAST_E1K>
0

> <TOXCAST_PH1V2>
0

> <TOXCAST_PH2>
0

> <TOXCAST_PH3>
0

> <TOXCAST_PHASEI>
0

> <TOXCAST_PHASEII>
0

> <TOXCAST_PHASEIII>
0

> <TRIRELEASE>
0

> <TSCASURF>
0

> <UJIBADE>
0

> <ATHENSSUS>
0

> <UATHTARGETS>
0

$$$$

  Mrv1533009301519182D          

  0  0  0     0  0            999 V3000
M  V30 BEGIN CTAB
M  V30 COUNTS 12 12 0 0 0
M  V30 BEGIN ATOM
M  V30 1 N 5.7475 3.08 0 0
M  V30 2 N 7.0812 0.77 0 0
M  V30 3 C 4.4137 0.77 0 0
M  V30 4 C 4.4137 -0.77 0 0
M  V30 5 C 5.7475 1.54 0 0
M  V30 6 C 3.08 -1.54 0 0
M  V30 7 C 5.7475 -1.54 0 0
M  V30 8 C 3.08 -3.08 0 0
M  V30 9 C 5.7475 -3.08 0 0
M  V30 10 C 4.4137 -3.85 0 0
M  V30 11 C 7.0812 3.85 0 0
M  V30 12 C 8.4149 1.54 0 0
M  V30 END ATOM
M  V30 BEGIN BOND
M  V30 1 1 1 5
M  V30 2 1 1 11
M  V30 3 2 2 5
M  V30 4 1 2 12
M  V30 5 1 3 4
M  V30 6 1 3 5
M  V30 7 2 4 6
M  V30 8 1 4 7
M  V30 9 1 6 8
M  V30 10 2 7 9
M  V30 11 2 8 10
M  V30 12 1 9 10
M  V30 END BOND
M  V30 END CTAB
M  END

> <INPUT>
C10H14N2

> <FOUND_BY>
MS Ready Formula

> <DTXCID_INDIVIDUAL_COMPONENT>
DTXCID30441705

> <FORMULA_INDIVIDUAL_COMPONENT>
C10H14N2

> <SMILES_INDIVIDUAL_COMPONENT>
CN\C(CC1=CC=CC=C1)=N/C

> <MAPPED_DTXSID>
DTXSID90490895

> <PREFERRED_NAME_DTXSID>
(1Z)-N,N'-Dimethyl(phenyl)ethanimidamide

> <CASRN_DTXSID>
52066-17-8

> <FORMULA_MAPPED_DTXSID>
C10H14N2

> <SMILES_MAPPED_DTXSID>
CN\C(CC1=CC=CC=C1)=N/C

> <MS_READY_SMILES>
CN\C(CC1=CC=CC=C1)=N/C

> <INCHI_STRING_DTXCID>
InChI=1S/C10H14N2/c1-11-10(12-2)8-9-6-4-3-5-7-9/h3-7H,8H2,1-2H3,(H,11,12)

> <INCHIKEY_DTXCID>
XCSUORFQYDEOHR-UHFFFAOYSA-N

> <MONOISOTOPIC_MASS_DTXCID>
162.115698459

> <EXPOCAST_MEDIAN_EXPOSURE_PREDICTION_MG/KG-BW/DAY>
-

> <EXPOCAST>
0

> <NHANES>
0

> <DATA_SOURCES>
1

> <TOXVAL_DATA>
0

> <TOXCAST_PERCENT_ACTIVE>
-

> <TOXCAST_NUMBER_OF_ASSAYS/TOTAL>
-

> <NUMBER_OF_PUBMED_ARTICLES>
-

> <PUBCHEM_DATA_SOURCES>
4

> <CPDAT_COUNT>
-

> <ATMOSPHERIC_HYDROXYLATION_RATE_(AOH)_CM3/MOLECULE*SEC_OPERA_PRED>
2.30872e-11

> <BIOCONCENTRATION_FACTOR_OPERA_PRED>
8.81085

> <BIODEGRADATION_HALF_LIFE_DAYS_DAYS_OPERA_PRED>
3.34976

> <BOILING_POINT_DEGC_OPERA_PRED>
268.997

> <HENRYS_LAW_ATM-M3/MOLE_OPERA_PRED>
2.26463e-07

> <OPERA_KM_DAYS_OPERA_PRED>
0.502823

> <OCTANOL_AIR_PARTITION_COEFF_LOGKOA_OPERA_PRED>
6.98377

> <SOIL_ADSORPTION_COEFFICIENT_KOC_L/KG_OPERA_PRED>
110.016

> <OCTANOL_WATER_PARTITION_LOGP_OPERA_PRED>
1.36757

> <MELTING_POINT_DEGC_OPERA_PRED>
69.6268

> <VAPOR_PRESSURE_MMHG_OPERA_PRED>
0.0165008

> <WATER_SOLUBILITY_MOL/L_OPERA_PRED>
0.0532261

> <TEST_BCF_TEST_PRED>
6.63743

> <BOILING_POINT_DEGC_TEST_PRED>
-

> <DENSITY_G/CM^3_TEST_PRED>
1.103

> <FLASH_POINT_DEGC_TEST_PRED>
127.403

> <MELTING_POINT_DEGC_TEST_PRED>
113.217

> <SURFACE_TENSION_DYN/CM_TEST_PRED>
-

> <THERMAL_CONDUCTIVITY_MW/(M*K)_TEST_PRED>
-

> <VISCOSITY_CP_CP_TEST_PRED>
-

> <VAPOR_PRESSURE_MMHG_TEST_PRED>
-

> <WATER_SOLUBILITY_MOL/L_TEST_PRED>
0.0125314

> <AEGLVALUES>
0

> <ALGALTOX>
0

> <ARCHEMICALS>
0

> <ATSDRLST>
0

> <BISPHENOLS>
0

> <OEHHA>
0

> <CERAPP>
0

> <FUNNAMES>
0

> <KWRSJERPS>
0

> <EPACONS>
0

> <IRIS>
0

> <EPAHFR>
0

> <EUCOSMETICS>
0

> <FRENCHLIST>
0

> <HEROMAP>
0

> <ITNANTIBIOTIC>
0

> <KEMIMARKET>
0

> <MASSBANKREF>
0

> <MASSBANKEUSP>
0

> <NEMILIST>
0

> <NATADB>
0

> <NIOSHIDLH>
0

> <NIOSHICSC>
0

> <NIOSHNPG>
0

> <NIOSHSKIN>
0

> <NORMANCT15>
0

> <SFISHFLUORO>
0

> <NORMANPRI>
0

> <NORMANEWS>
0

> <PFASTRIER>
0

> <SWISSPHARMA>
0

> <PPRTVWEB>
0

> <STOCKHOLM>
0

> <STOFFIDENT>
0

> <SCDM>
0

> <EAWAGSURF>
0

> <SWISSPEST>
0

> <TOX21SL>
0

> <TOXCAST>
0

> <TOXCAST_E1K>
0

> <TOXCAST_PH1V2>
0

> <TOXCAST_PH2>
0

> <TOXCAST_PH3>
0

> <TOXCAST_PHASEI>
0

> <TOXCAST_PHASEII>
0

> <TOXCAST_PHASEIII>
0

> <TRIRELEASE>
0

> <TSCASURF>
0

> <UJIBADE>
0

> <ATHENSSUS>
0

> <UATHTARGETS>
0

$$$$

  Mrv1533009301519192D          

  0  0  0     0  0            999 V3000
M  V30 BEGIN CTAB
M  V30 COUNTS 12 13 0 0 1
M  V30 BEGIN ATOM
M  V30 1 N 7.1241 1.5669 0 0
M  V30 2 N 3.08 -0.7967 0 0
M  V30 3 C 8.5197 -0.8286 0 0
M  V30 4 C 7.1241 -1.6201 0 0
M  V30 5 C 8.5197 0.7754 0 0
M  V30 6 C 5.7475 -0.7967 0 0
M  V30 7 C 5.7475 0.7433 0 0
M  V30 8 C 4.4137 -1.5667 0 0
M  V30 9 C 7.1064 3.1067 0 0
M  V30 10 C 4.4137 1.5133 0 0
M  V30 11 C 4.4137 -3.1067 0 0
M  V30 12 C 3.08 0.7433 0 0
M  V30 END ATOM
M  V30 BEGIN BOND
M  V30 1 1 1 5
M  V30 2 1 1 7
M  V30 3 1 1 9
M  V30 4 2 2 8
M  V30 5 1 2 12
M  V30 6 1 3 4
M  V30 7 1 3 5
M  V30 8 1 4 6
M  V30 9 2 6 7
M  V30 10 1 6 8
M  V30 11 1 7 10
M  V30 12 1 8 11
M  V30 13 2 10 12
M  V30 END BOND
M  V30 END CTAB
M  END

> <INPUT>
C10H14N2

> <FOUND_BY>
MS Ready Formula

> <DTXCID_INDIVIDUAL_COMPONENT>
DTXCID40443053

> <FORMULA_INDIVIDUAL_COMPONENT>
C10H14N2

> <SMILES_INDIVIDUAL_COMPONENT>
CN1CCCC2=C1C=CN=C2C

> <MAPPED_DTXSID>
DTXSID40492243

> <PREFERRED_NAME_DTXSID>
1,5-Dimethyl-1,2,3,4-tetrahydro-1,6-naphthyridine

> <CASRN_DTXSID>
61542-06-1

> <FORMULA_MAPPED_DTXSID>
C10H14N2

> <SMILES_MAPPED_DTXSID>
CN1CCCC2=C1C=CN=C2C

> <MS_READY_SMILES>
CN1CCCC2=C1C=CN=C2C

> <INCHI_STRING_DTXCID>
InChI=1S/C10H14N2/c1-8-9-4-3-7-12(2)10(9)5-6-11-8/h5-6H,3-4,7H2,1-2H3

> <INCHIKEY_DTXCID>
ZDYQEOVPCHWZAX-UHFFFAOYSA-N

> <MONOISOTOPIC_MASS_DTXCID>
162.115698459

> <EXPOCAST_MEDIAN_EXPOSURE_PREDICTION_MG/KG-BW/DAY>
-

> <EXPOCAST>
0

> <NHANES>
0

> <DATA_SOURCES>
1

> <TOXVAL_DATA>
0

> <TOXCAST_PERCENT_ACTIVE>
-

> <TOXCAST_NUMBER_OF_ASSAYS/TOTAL>
-

> <NUMBER_OF_PUBMED_ARTICLES>
-

> <PUBCHEM_DATA_SOURCES>
4

> <CPDAT_COUNT>
-

> <ATMOSPHERIC_HYDROXYLATION_RATE_(AOH)_CM3/MOLECULE*SEC_OPERA_PRED>
2.11735e-11

> <BIOCONCENTRATION_FACTOR_OPERA_PRED>
6.78212

> <BIODEGRADATION_HALF_LIFE_DAYS_DAYS_OPERA_PRED>
3.36013

> <BOILING_POINT_DEGC_OPERA_PRED>
256.503

> <HENRYS_LAW_ATM-M3/MOLE_OPERA_PRED>
9.16914e-06

> <OPERA_KM_DAYS_OPERA_PRED>
2.74758

> <OCTANOL_AIR_PARTITION_COEFF_LOGKOA_OPERA_PRED>
6.17077

> <SOIL_ADSORPTION_COEFFICIENT_KOC_L/KG_OPERA_PRED>
167.958

> <OCTANOL_WATER_PARTITION_LOGP_OPERA_PRED>
2.01412

> <MELTING_POINT_DEGC_OPERA_PRED>
148.926

> <VAPOR_PRESSURE_MMHG_OPERA_PRED>
0.00321344

> <WATER_SOLUBILITY_MOL/L_OPERA_PRED>
0.0132776

> <TEST_BCF_TEST_PRED>
16.293

> <BOILING_POINT_DEGC_TEST_PRED>
260.884

> <DENSITY_G/CM^3_TEST_PRED>
1.02

> <FLASH_POINT_DEGC_TEST_PRED>
104.896

> <MELTING_POINT_DEGC_TEST_PRED>
28.096

> <SURFACE_TENSION_DYN/CM_TEST_PRED>
34.559

> <THERMAL_CONDUCTIVITY_MW/(M*K)_TEST_PRED>
139.76

> <VISCOSITY_CP_CP_TEST_PRED>
4.09261

> <VAPOR_PRESSURE_MMHG_TEST_PRED>
0.0428549

> <WATER_SOLUBILITY_MOL/L_TEST_PRED>
0.0107895

> <AEGLVALUES>
0

> <ALGALTOX>
0

> <ARCHEMICALS>
0

> <ATSDRLST>
0

> <BISPHENOLS>
0

> <OEHHA>
0

> <CERAPP>
0

> <FUNNAMES>
0

> <KWRSJERPS>
0

> <EPACONS>
0

> <IRIS>
0

> <EPAHFR>
0

> <EUCOSMETICS>
0

> <FRENCHLIST>
0

> <HEROMAP>
0

> <ITNANTIBIOTIC>
0

> <KEMIMARKET>
0

> <MASSBANKREF>
0

> <MASSBANKEUSP>
0

> <NEMILIST>
0

> <NATADB>
0

> <NIOSHIDLH>
0

> <NIOSHICSC>
0

> <NIOSHNPG>
0

> <NIOSHSKIN>
0

> <NORMANCT15>
0

> <SFISHFLUORO>
0

> <NORMANPRI>
0

> <NORMANEWS>
0

> <PFASTRIER>
0

> <SWISSPHARMA>
0

> <PPRTVWEB>
0

> <STOCKHOLM>
0

> <STOFFIDENT>
0

> <SCDM>
0

> <EAWAGSURF>
0

> <SWISSPEST>
0

> <TOX21SL>
0

> <TOXCAST>
0

> <TOXCAST_E1K>
0

> <TOXCAST_PH1V2>
0

> <TOXCAST_PH2>
0

> <TOXCAST_PH3>
0

> <TOXCAST_PHASEI>
0

> <TOXCAST_PHASEII>
0

> <TOXCAST_PHASEIII>
0

> <TRIRELEASE>
0

> <TSCASURF>
0

> <UJIBADE>
0

> <ATHENSSUS>
0

> <UATHTARGETS>
0

$$$$
444701
  Mrv1611109301620262D          

  0  0  0     0  0            999 V3000
M  V30 BEGIN CTAB
M  V30 COUNTS 12 13 0 0 0
M  V30 BEGIN ATOM
M  V30 1 N -1.6543 -4.1456 0 0
M  V30 2 C -1.6543 -2.6056 0 0
M  V30 3 C -0.3206 -1.8356 0 0
M  V30 4 C -0.3206 -0.2956 0 0
M  V30 5 C 1.0131 0.4744 0 0
M  V30 6 C 2.3468 -0.2956 0 0
M  V30 7 C 3.6804 0.4744 0 0
M  V30 8 C 2.3468 -1.8356 0 0
M  V30 9 N 1.0131 -2.6056 0 0
M  V30 10 C -1.6543 0.4744 0 0
M  V30 11 C -2.9879 -0.2956 0 0
M  V30 12 C -2.9879 -1.8356 0 0
M  V30 END ATOM
M  V30 BEGIN BOND
M  V30 1 1 1 2
M  V30 2 1 2 3
M  V30 3 2 3 4
M  V30 4 1 4 5
M  V30 5 2 5 6
M  V30 6 1 6 7
M  V30 7 1 6 8
M  V30 8 2 8 9
M  V30 9 1 9 3
M  V30 10 1 4 10
M  V30 11 1 10 11
M  V30 12 1 11 12
M  V30 13 1 12 2
M  V30 END BOND
M  V30 END CTAB
M  END

> <INPUT>
C10H14N2

> <FOUND_BY>
MS Ready Formula

> <DTXCID_INDIVIDUAL_COMPONENT>
DTXCID50968045

> <FORMULA_INDIVIDUAL_COMPONENT>
C10H14N2

> <SMILES_INDIVIDUAL_COMPONENT>
CC1=CC2=C(N=C1)C(N)CCC2

> <MAPPED_DTXSID>
DTXSID40493891

> <PREFERRED_NAME_DTXSID>
3-Methyl-5,6,7,8-tetrahydroquinolin-8-amine

> <CASRN_DTXSID>
62455-48-5

> <FORMULA_MAPPED_DTXSID>
C10H14N2

> <SMILES_MAPPED_DTXSID>
CC1=CC2=C(N=C1)C(N)CCC2

> <MS_READY_SMILES>
CC1=CC2=C(N=C1)C(N)CCC2

> <INCHI_STRING_DTXCID>
InChI=1S/C10H14N2/c1-7-5-8-3-2-4-9(11)10(8)12-6-7/h5-6,9H,2-4,11H2,1H3

> <INCHIKEY_DTXCID>
HCOWPHZNMIYZAN-UHFFFAOYSA-N

> <MONOISOTOPIC_MASS_DTXCID>
162.115698459

> <EXPOCAST_MEDIAN_EXPOSURE_PREDICTION_MG/KG-BW/DAY>
-

> <EXPOCAST>
0

> <NHANES>
0

> <DATA_SOURCES>
1

> <TOXVAL_DATA>
0

> <TOXCAST_PERCENT_ACTIVE>
-

> <TOXCAST_NUMBER_OF_ASSAYS/TOTAL>
-

> <NUMBER_OF_PUBMED_ARTICLES>
-

> <PUBCHEM_DATA_SOURCES>
10

> <CPDAT_COUNT>
-

> <ATMOSPHERIC_HYDROXYLATION_RATE_(AOH)_CM3/MOLECULE*SEC_OPERA_PRED>
2.11076e-11

> <BIOCONCENTRATION_FACTOR_OPERA_PRED>
6.40742

> <BIODEGRADATION_HALF_LIFE_DAYS_DAYS_OPERA_PRED>
3.82092

> <BOILING_POINT_DEGC_OPERA_PRED>
286.183

> <HENRYS_LAW_ATM-M3/MOLE_OPERA_PRED>
2.70656e-07

> <OPERA_KM_DAYS_OPERA_PRED>
0.461383

> <OCTANOL_AIR_PARTITION_COEFF_LOGKOA_OPERA_PRED>
8.50991

> <SOIL_ADSORPTION_COEFFICIENT_KOC_L/KG_OPERA_PRED>
109.676

> <OCTANOL_WATER_PARTITION_LOGP_OPERA_PRED>
1.18021

> <MELTING_POINT_DEGC_OPERA_PRED>
127.153

> <VAPOR_PRESSURE_MMHG_OPERA_PRED>
0.00014765

> <WATER_SOLUBILITY_MOL/L_OPERA_PRED>
0.014175

> <TEST_BCF_TEST_PRED>
15.3109

> <BOILING_POINT_DEGC_TEST_PRED>
288.649

> <DENSITY_G/CM^3_TEST_PRED>
1.084

> <FLASH_POINT_DEGC_TEST_PRED>
145.575

> <MELTING_POINT_DEGC_TEST_PRED>
98.627

> <SURFACE_TENSION_DYN/CM_TEST_PRED>
-

> <THERMAL_CONDUCTIVITY_MW/(M*K)_TEST_PRED>
148.501

> <VISCOSITY_CP_CP_TEST_PRED>
11.0154

> <VAPOR_PRESSURE_MMHG_TEST_PRED>
0.000213796

> <WATER_SOLUBILITY_MOL/L_TEST_PRED>
0.0248886

> <AEGLVALUES>
0

> <ALGALTOX>
0

> <ARCHEMICALS>
0

> <ATSDRLST>
0

> <BISPHENOLS>
0

> <OEHHA>
0

> <CERAPP>
0

> <FUNNAMES>
0

> <KWRSJERPS>
0

> <EPACONS>
0

> <IRIS>
0

> <EPAHFR>
0

> <EUCOSMETICS>
0

> <FRENCHLIST>
0

> <HEROMAP>
0

> <ITNANTIBIOTIC>
0

> <KEMIMARKET>
0

> <MASSBANKREF>
0

> <MASSBANKEUSP>
0

> <NEMILIST>
0

> <NATADB>
0

> <NIOSHIDLH>
0

> <NIOSHICSC>
0

> <NIOSHNPG>
0

> <NIOSHSKIN>
0

> <NORMANCT15>
0

> <SFISHFLUORO>
0

> <NORMANPRI>
0

> <NORMANEWS>
0

> <PFASTRIER>
0

> <SWISSPHARMA>
0

> <PPRTVWEB>
0

> <STOCKHOLM>
0

> <STOFFIDENT>
0

> <SCDM>
0

> <EAWAGSURF>
0

> <SWISSPEST>
0

> <TOX21SL>
0

> <TOXCAST>
0

> <TOXCAST_E1K>
0

> <TOXCAST_PH1V2>
0

> <TOXCAST_PH2>
0

> <TOXCAST_PH3>
0

> <TOXCAST_PHASEI>
0

> <TOXCAST_PHASEII>
0

> <TOXCAST_PHASEIII>
0

> <TRIRELEASE>
0

> <TSCASURF>
0

> <UJIBADE>
0

> <ATHENSSUS>
0

> <UATHTARGETS>
0

$$$$

  Mrv1533009301519212D          

  0  0  0     0  0            999 V3000
M  V30 BEGIN CTAB
M  V30 COUNTS 12 12 0 0 0
M  V30 BEGIN ATOM
M  V30 1 N 4.4137 -3.85 0 0
M  V30 2 N 5.7475 3.08 0 0
M  V30 3 C 4.4137 -2.31 0 0
M  V30 4 C 5.7475 -1.54 0 0
M  V30 5 C 3.08 -1.54 0 0
M  V30 6 C 4.4137 0.77 0 0
M  V30 7 C 5.7475 0 0 0
M  V30 8 C 3.08 0 0 0
M  V30 9 C 3.08 -4.6202 0 0
M  V30 10 C 5.7475 -4.6202 0 0
M  V30 11 C 4.4137 2.31 0 0
M  V30 12 C 5.7475 4.6202 0 0
M  V30 END ATOM
M  V30 BEGIN BOND
M  V30 1 1 1 3
M  V30 2 1 1 9
M  V30 3 1 1 10
M  V30 4 2 2 11
M  V30 5 1 2 12
M  V30 6 2 3 4
M  V30 7 1 3 5
M  V30 8 1 4 7
M  V30 9 2 5 8
M  V30 10 2 6 7
M  V30 11 1 6 8
M  V30 12 1 6 11
M  V30 END BOND
M  V30 END CTAB
M  END

> <INPUT>
C10H14N2

> <FOUND_BY>
MS Ready Formula

> <DTXCID_INDIVIDUAL_COMPONENT>
DTXCID80449650

> <FORMULA_INDIVIDUAL_COMPONENT>
C10H14N2

> <SMILES_INDIVIDUAL_COMPONENT>
C\N=C\C1=CC=C(C=C1)N(C)C

> <MAPPED_DTXSID>
DTXSID80498840

> <PREFERRED_NAME_DTXSID>
N,N-Dimethyl-4-[(E)-(methylimino)methyl]aniline

> <CASRN_DTXSID>
877-79-2

> <FORMULA_MAPPED_DTXSID>
C10H14N2

> <SMILES_MAPPED_DTXSID>
C\N=C\C1=CC=C(C=C1)N(C)C

> <MS_READY_SMILES>
CN=CC1=CC=C(C=C1)N(C)C

> <INCHI_STRING_DTXCID>
InChI=1S/C10H14N2/c1-11-8-9-4-6-10(7-5-9)12(2)3/h4-8H,1-3H3/b11-8+

> <INCHIKEY_DTXCID>
VKLCQRQREREZTC-DHZHZOJOSA-N

> <MONOISOTOPIC_MASS_DTXCID>
162.115698459

> <EXPOCAST_MEDIAN_EXPOSURE_PREDICTION_MG/KG-BW/DAY>
-

> <EXPOCAST>
0

> <NHANES>
0

> <DATA_SOURCES>
1

> <TOXVAL_DATA>
0

> <TOXCAST_PERCENT_ACTIVE>
-

> <TOXCAST_NUMBER_OF_ASSAYS/TOTAL>
-

> <NUMBER_OF_PUBMED_ARTICLES>
-

> <PUBCHEM_DATA_SOURCES>
10

> <CPDAT_COUNT>
-

> <ATMOSPHERIC_HYDROXYLATION_RATE_(AOH)_CM3/MOLECULE*SEC_OPERA_PRED>
3.16008e-11

> <BIOCONCENTRATION_FACTOR_OPERA_PRED>
7.11975

> <BIODEGRADATION_HALF_LIFE_DAYS_DAYS_OPERA_PRED>
4.31008

> <BOILING_POINT_DEGC_OPERA_PRED>
229.988

> <HENRYS_LAW_ATM-M3/MOLE_OPERA_PRED>
9.5474e-06

> <OPERA_KM_DAYS_OPERA_PRED>
1.8323

> <OCTANOL_AIR_PARTITION_COEFF_LOGKOA_OPERA_PRED>
5.05445

> <SOIL_ADSORPTION_COEFFICIENT_KOC_L/KG_OPERA_PRED>
119.711

> <OCTANOL_WATER_PARTITION_LOGP_OPERA_PRED>
1.11705

> <MELTING_POINT_DEGC_OPERA_PRED>
94.9859

> <VAPOR_PRESSURE_MMHG_OPERA_PRED>
0.00942807

> <WATER_SOLUBILITY_MOL/L_OPERA_PRED>
0.0431527

> <TEST_BCF_TEST_PRED>
-

> <BOILING_POINT_DEGC_TEST_PRED>
245.631

> <DENSITY_G/CM^3_TEST_PRED>
0.965

> <FLASH_POINT_DEGC_TEST_PRED>
123.704

> <MELTING_POINT_DEGC_TEST_PRED>
36.934

> <SURFACE_TENSION_DYN/CM_TEST_PRED>
-

> <THERMAL_CONDUCTIVITY_MW/(M*K)_TEST_PRED>
-

> <VISCOSITY_CP_CP_TEST_PRED>
-

> <VAPOR_PRESSURE_MMHG_TEST_PRED>
0.00293765

> <WATER_SOLUBILITY_MOL/L_TEST_PRED>
0.0069024

> <AEGLVALUES>
0

> <ALGALTOX>
0

> <ARCHEMICALS>
0

> <ATSDRLST>
0

> <BISPHENOLS>
0

> <OEHHA>
0

> <CERAPP>
0

> <FUNNAMES>
0

> <KWRSJERPS>
0

> <EPACONS>
0

> <IRIS>
0

> <EPAHFR>
0

> <EUCOSMETICS>
0

> <FRENCHLIST>
0

> <HEROMAP>
0

> <ITNANTIBIOTIC>
0

> <KEMIMARKET>
0

> <MASSBANKREF>
0

> <MASSBANKEUSP>
0

> <NEMILIST>
0

> <NATADB>
0

> <NIOSHIDLH>
0

> <NIOSHICSC>
0

> <NIOSHNPG>
0

> <NIOSHSKIN>
0

> <NORMANCT15>
0

> <SFISHFLUORO>
0

> <NORMANPRI>
0

> <NORMANEWS>
0

> <PFASTRIER>
0

> <SWISSPHARMA>
0

> <PPRTVWEB>
0

> <STOCKHOLM>
0

> <STOFFIDENT>
0

> <SCDM>
0

> <EAWAGSURF>
0

> <SWISSPEST>
0

> <TOX21SL>
0

> <TOXCAST>
0

> <TOXCAST_E1K>
0

> <TOXCAST_PH1V2>
0

> <TOXCAST_PH2>
0

> <TOXCAST_PH3>
0

> <TOXCAST_PHASEI>
0

> <TOXCAST_PHASEII>
0

> <TOXCAST_PHASEIII>
0

> <TRIRELEASE>
0

> <TSCASURF>
0

> <UJIBADE>
0

> <ATHENSSUS>
0

> <UATHTARGETS>
0

$$$$

  Mrv1533009301519212D          

  0  0  0     0  0            999 V3000
M  V30 BEGIN CTAB
M  V30 COUNTS 12 12 0 0 0
M  V30 BEGIN ATOM
M  V30 1 N 4.4137 0.77 0 0
M  V30 2 N 7.0812 0.77 0 0
M  V30 3 C 3.08 3.08 0 0
M  V30 4 C 4.4137 2.31 0 0
M  V30 5 C 5.7475 -1.54 0 0
M  V30 6 C 5.7475 0 0 0
M  V30 7 C 3.08 4.6202 0 0
M  V30 8 C 4.4137 -2.31 0 0
M  V30 9 C 7.0812 -2.31 0 0
M  V30 10 C 4.4137 -3.85 0 0
M  V30 11 C 7.0812 -3.85 0 0
M  V30 12 C 5.7475 -4.6202 0 0
M  V30 END ATOM
M  V30 BEGIN BOND
M  V30 1 1 1 4
M  V30 2 2 1 6
M  V30 3 1 2 6
M  V30 4 1 3 4
M  V30 5 1 3 7
M  V30 6 1 5 6
M  V30 7 2 5 8
M  V30 8 1 5 9
M  V30 9 1 8 10
M  V30 10 2 9 11
M  V30 11 2 10 12
M  V30 12 1 11 12
M  V30 END BOND
M  V30 END CTAB
M  END

> <INPUT>
C10H14N2

> <FOUND_BY>
MS Ready Formula

> <DTXCID_INDIVIDUAL_COMPONENT>
DTXCID00450501

> <FORMULA_INDIVIDUAL_COMPONENT>
C10H14N2

> <SMILES_INDIVIDUAL_COMPONENT>
CCC\N=C(/N)C1=CC=CC=C1

> <MAPPED_DTXSID>
DTXSID40499691

> <PREFERRED_NAME_DTXSID>
N'-Propylbenzenecarboximidamide

> <CASRN_DTXSID>
22286-00-6

> <FORMULA_MAPPED_DTXSID>
C10H14N2

> <SMILES_MAPPED_DTXSID>
CCC\N=C(/N)C1=CC=CC=C1

> <MS_READY_SMILES>
CCC\N=C(/N)C1=CC=CC=C1

> <INCHI_STRING_DTXCID>
InChI=1S/C10H14N2/c1-2-8-12-10(11)9-6-4-3-5-7-9/h3-7H,2,8H2,1H3,(H2,11,12)

> <INCHIKEY_DTXCID>
YYPCTPUYQVEKGN-UHFFFAOYSA-N

> <MONOISOTOPIC_MASS_DTXCID>
162.115698459

> <EXPOCAST_MEDIAN_EXPOSURE_PREDICTION_MG/KG-BW/DAY>
-

> <EXPOCAST>
0

> <NHANES>
0

> <DATA_SOURCES>
1

> <TOXVAL_DATA>
0

> <TOXCAST_PERCENT_ACTIVE>
-

> <TOXCAST_NUMBER_OF_ASSAYS/TOTAL>
-

> <NUMBER_OF_PUBMED_ARTICLES>
-

> <PUBCHEM_DATA_SOURCES>
9

> <CPDAT_COUNT>
-

> <ATMOSPHERIC_HYDROXYLATION_RATE_(AOH)_CM3/MOLECULE*SEC_OPERA_PRED>
2.21749e-11

> <BIOCONCENTRATION_FACTOR_OPERA_PRED>
9.64485

> <BIODEGRADATION_HALF_LIFE_DAYS_DAYS_OPERA_PRED>
3.29883

> <BOILING_POINT_DEGC_OPERA_PRED>
279.596

> <HENRYS_LAW_ATM-M3/MOLE_OPERA_PRED>
1.3754e-07

> <OPERA_KM_DAYS_OPERA_PRED>
0.360764

> <OCTANOL_AIR_PARTITION_COEFF_LOGKOA_OPERA_PRED>
7.51174

> <SOIL_ADSORPTION_COEFFICIENT_KOC_L/KG_OPERA_PRED>
126.05

> <OCTANOL_WATER_PARTITION_LOGP_OPERA_PRED>
1.18001

> <MELTING_POINT_DEGC_OPERA_PRED>
116.371

> <VAPOR_PRESSURE_MMHG_OPERA_PRED>
0.0200128

> <WATER_SOLUBILITY_MOL/L_OPERA_PRED>
0.0191205

> <TEST_BCF_TEST_PRED>
15.6675

> <BOILING_POINT_DEGC_TEST_PRED>
-

> <DENSITY_G/CM^3_TEST_PRED>
1.121

> <FLASH_POINT_DEGC_TEST_PRED>
133.392

> <MELTING_POINT_DEGC_TEST_PRED>
126.371

> <SURFACE_TENSION_DYN/CM_TEST_PRED>
-

> <THERMAL_CONDUCTIVITY_MW/(M*K)_TEST_PRED>
-

> <VISCOSITY_CP_CP_TEST_PRED>
-

> <VAPOR_PRESSURE_MMHG_TEST_PRED>
-

> <WATER_SOLUBILITY_MOL/L_TEST_PRED>
0.0117761

> <AEGLVALUES>
0

> <ALGALTOX>
0

> <ARCHEMICALS>
0

> <ATSDRLST>
0

> <BISPHENOLS>
0

> <OEHHA>
0

> <CERAPP>
0

> <FUNNAMES>
0

> <KWRSJERPS>
0

> <EPACONS>
0

> <IRIS>
0

> <EPAHFR>
0

> <EUCOSMETICS>
0

> <FRENCHLIST>
0

> <HEROMAP>
0

> <ITNANTIBIOTIC>
0

> <KEMIMARKET>
0

> <MASSBANKREF>
0

> <MASSBANKEUSP>
0

> <NEMILIST>
0

> <NATADB>
0

> <NIOSHIDLH>
0

> <NIOSHICSC>
0

> <NIOSHNPG>
0

> <NIOSHSKIN>
0

> <NORMANCT15>
0

> <SFISHFLUORO>
0

> <NORMANPRI>
0

> <NORMANEWS>
0

> <PFASTRIER>
0

> <SWISSPHARMA>
0

> <PPRTVWEB>
0

> <STOCKHOLM>
0

> <STOFFIDENT>
0

> <SCDM>
0

> <EAWAGSURF>
0

> <SWISSPEST>
0

> <TOX21SL>
0

> <TOXCAST>
0

> <TOXCAST_E1K>
0

> <TOXCAST_PH1V2>
0

> <TOXCAST_PH2>
0

> <TOXCAST_PH3>
0

> <TOXCAST_PHASEI>
0

> <TOXCAST_PHASEII>
0

> <TOXCAST_PHASEIII>
0

> <TRIRELEASE>
0

> <TSCASURF>
0

> <UJIBADE>
0

> <ATHENSSUS>
0

> <UATHTARGETS>
0

$$$$
459661
  Mrv1611109301620472D          

  0  0  0     0  0            999 V3000
M  V30 BEGIN CTAB
M  V30 COUNTS 12 13 0 0 0
M  V30 BEGIN ATOM
M  V30 1 N 1.6801 -3.7074 0 0
M  V30 2 C 1.2042 -5.1719 0 0
M  V30 3 C -0.3358 -5.1719 0 0
M  V30 4 C -0.8117 -3.7074 0 0
M  V30 5 C 0.4342 -2.8022 0 0
M  V30 6 C 0.4342 -1.2622 0 0
M  V30 7 C -0.8995 -0.4922 0 0
M  V30 8 N -0.8995 1.0478 0 0
M  V30 9 C 0.4342 1.8178 0 0
M  V30 10 C 1.7679 1.0478 0 0
M  V30 11 C 3.1016 1.8178 0 0
M  V30 12 C 1.7679 -0.4922 0 0
M  V30 END ATOM
M  V30 BEGIN BOND
M  V30 1 1 1 2
M  V30 2 1 2 3
M  V30 3 1 3 4
M  V30 4 1 4 5
M  V30 5 1 5 1
M  V30 6 1 5 6
M  V30 7 2 6 7
M  V30 8 1 7 8
M  V30 9 2 8 9
M  V30 10 1 9 10
M  V30 11 1 10 11
M  V30 12 2 10 12
M  V30 13 1 12 6
M  V30 END BOND
M  V30 END CTAB
M  END

> <INPUT>
C10H14N2

> <FOUND_BY>
MS Ready Formula

> <DTXCID_INDIVIDUAL_COMPONENT>
DTXCID70972043

> <FORMULA_INDIVIDUAL_COMPONENT>
C10H14N2

> <SMILES_INDIVIDUAL_COMPONENT>
CC1=CC(=CN=C1)C1CCCN1

> <MAPPED_DTXSID>
DTXSID00508854

> <PREFERRED_NAME_DTXSID>
3-Methyl-5-(pyrrolidin-2-yl)pyridine

> <CASRN_DTXSID>
126741-11-5

> <FORMULA_MAPPED_DTXSID>
C10H14N2

> <SMILES_MAPPED_DTXSID>
CC1=CC(=CN=C1)C1CCCN1

> <MS_READY_SMILES>
CC1=CC(=CN=C1)C1CCCN1

> <INCHI_STRING_DTXCID>
InChI=1S/C10H14N2/c1-8-5-9(7-11-6-8)10-3-2-4-12-10/h5-7,10,12H,2-4H2,1H3

> <INCHIKEY_DTXCID>
ROFRZRRVJWMLMU-UHFFFAOYSA-N

> <MONOISOTOPIC_MASS_DTXCID>
162.115698459

> <EXPOCAST_MEDIAN_EXPOSURE_PREDICTION_MG/KG-BW/DAY>
-

> <EXPOCAST>
0

> <NHANES>
0

> <DATA_SOURCES>
1

> <TOXVAL_DATA>
0

> <TOXCAST_PERCENT_ACTIVE>
-

> <TOXCAST_NUMBER_OF_ASSAYS/TOTAL>
-

> <NUMBER_OF_PUBMED_ARTICLES>
-

> <PUBCHEM_DATA_SOURCES>
11

> <CPDAT_COUNT>
-

> <ATMOSPHERIC_HYDROXYLATION_RATE_(AOH)_CM3/MOLECULE*SEC_OPERA_PRED>
4.36831e-11

> <BIOCONCENTRATION_FACTOR_OPERA_PRED>
6.81019

> <BIODEGRADATION_HALF_LIFE_DAYS_DAYS_OPERA_PRED>
3.16782

> <BOILING_POINT_DEGC_OPERA_PRED>
281.7

> <HENRYS_LAW_ATM-M3/MOLE_OPERA_PRED>
2.84852e-07

> <OPERA_KM_DAYS_OPERA_PRED>
0.44243

> <OCTANOL_AIR_PARTITION_COEFF_LOGKOA_OPERA_PRED>
8.35452

> <SOIL_ADSORPTION_COEFFICIENT_KOC_L/KG_OPERA_PRED>
146.68

> <OCTANOL_WATER_PARTITION_LOGP_OPERA_PRED>
0.770151

> <MELTING_POINT_DEGC_OPERA_PRED>
86.9351

> <VAPOR_PRESSURE_MMHG_OPERA_PRED>
0.0118706

> <WATER_SOLUBILITY_MOL/L_OPERA_PRED>
0.394408

> <TEST_BCF_TEST_PRED>
8.531

> <BOILING_POINT_DEGC_TEST_PRED>
269.03

> <DENSITY_G/CM^3_TEST_PRED>
1.035

> <FLASH_POINT_DEGC_TEST_PRED>
112.161

> <MELTING_POINT_DEGC_TEST_PRED>
31.319

> <SURFACE_TENSION_DYN/CM_TEST_PRED>
37.815

> <THERMAL_CONDUCTIVITY_MW/(M*K)_TEST_PRED>
142.794

> <VISCOSITY_CP_CP_TEST_PRED>
11.7761

> <VAPOR_PRESSURE_MMHG_TEST_PRED>
0.000870964

> <WATER_SOLUBILITY_MOL/L_TEST_PRED>
0.042462

> <AEGLVALUES>
0

> <ALGALTOX>
0

> <ARCHEMICALS>
0

> <ATSDRLST>
0

> <BISPHENOLS>
0

> <OEHHA>
0

> <CERAPP>
0

> <FUNNAMES>
0

> <KWRSJERPS>
0

> <EPACONS>
0

> <IRIS>
0

> <EPAHFR>
0

> <EUCOSMETICS>
0

> <FRENCHLIST>
0

> <HEROMAP>
0

> <ITNANTIBIOTIC>
0

> <KEMIMARKET>
0

> <MASSBANKREF>
0

> <MASSBANKEUSP>
0

> <NEMILIST>
0

> <NATADB>
0

> <NIOSHIDLH>
0

> <NIOSHICSC>
0

> <NIOSHNPG>
0

> <NIOSHSKIN>
0

> <NORMANCT15>
0

> <SFISHFLUORO>
0

> <NORMANPRI>
0

> <NORMANEWS>
0

> <PFASTRIER>
0

> <SWISSPHARMA>
0

> <PPRTVWEB>
0

> <STOCKHOLM>
0

> <STOFFIDENT>
0

> <SCDM>
0

> <EAWAGSURF>
0

> <SWISSPEST>
0

> <TOX21SL>
0

> <TOXCAST>
0

> <TOXCAST_E1K>
0

> <TOXCAST_PH1V2>
0

> <TOXCAST_PH2>
0

> <TOXCAST_PH3>
0

> <TOXCAST_PHASEI>
0

> <TOXCAST_PHASEII>
0

> <TOXCAST_PHASEIII>
0

> <TRIRELEASE>
0

> <TSCASURF>
0

> <UJIBADE>
0

> <ATHENSSUS>
0

> <UATHTARGETS>
0

$$$$

  Mrv1533009301519262D          

  0  0  0     0  0            999 V3000
M  V30 BEGIN CTAB
M  V30 COUNTS 12 13 0 0 1
M  V30 BEGIN ATOM
M  V30 1 N 10.6801 -0.3513 0 0
M  V30 2 N 3.9069 -1.0892 0 0
M  V30 3 C 10.6801 1.2529 0 0
M  V30 4 C 9.2848 2.044 0 0
M  V30 5 C 9.2848 -1.1428 0 0
M  V30 6 C 7.9081 1.2208 0 0
M  V30 7 C 7.9081 -0.3192 0 0
M  V30 8 C 6.5744 -1.0892 0 0
M  V30 9 C 6.5744 1.9908 0 0
M  V30 10 C 12.0109 -1.1265 0 0
M  V30 11 C 5.2407 -0.3192 0 0
M  V30 12 C 5.2407 1.2208 0 0
M  V30 END ATOM
M  V30 BEGIN BOND
M  V30 1 1 1 3
M  V30 2 1 1 5
M  V30 3 1 1 10
M  V30 4 1 2 11
M  V30 5 1 3 4
M  V30 6 1 4 6
M  V30 7 1 5 7
M  V30 8 2 6 7
M  V30 9 1 6 9
M  V30 10 1 7 8
M  V30 11 2 8 11
M  V30 12 2 9 12
M  V30 13 1 11 12
M  V30 END BOND
M  V30 END CTAB
M  END

> <INPUT>
C10H14N2

> <FOUND_BY>
MS Ready Formula

> <DTXCID_INDIVIDUAL_COMPONENT>
DTXCID60465474

> <FORMULA_INDIVIDUAL_COMPONENT>
C10H14N2

> <SMILES_INDIVIDUAL_COMPONENT>
CN1CCC2=C(C1)C=C(N)C=C2

> <MAPPED_DTXSID>
DTXSID50514667

> <PREFERRED_NAME_DTXSID>
2-Methyl-1,2,3,4-tetrahydroisoquinolin-7-amine

> <CASRN_DTXSID>
14097-40-6

> <FORMULA_MAPPED_DTXSID>
C10H14N2

> <SMILES_MAPPED_DTXSID>
CN1CCC2=C(C1)C=C(N)C=C2

> <MS_READY_SMILES>
CN1CCC2=C(C1)C=C(N)C=C2

> <INCHI_STRING_DTXCID>
InChI=1S/C10H14N2/c1-12-5-4-8-2-3-10(11)6-9(8)7-12/h2-3,6H,4-5,7,11H2,1H3

> <INCHIKEY_DTXCID>
VRKLIVSHUQSRNF-UHFFFAOYSA-N

> <MONOISOTOPIC_MASS_DTXCID>
162.115698459

> <EXPOCAST_MEDIAN_EXPOSURE_PREDICTION_MG/KG-BW/DAY>
-

> <EXPOCAST>
0

> <NHANES>
0

> <DATA_SOURCES>
1

> <TOXVAL_DATA>
0

> <TOXCAST_PERCENT_ACTIVE>
-

> <TOXCAST_NUMBER_OF_ASSAYS/TOTAL>
-

> <NUMBER_OF_PUBMED_ARTICLES>
-

> <PUBCHEM_DATA_SOURCES>
25

> <CPDAT_COUNT>
-

> <ATMOSPHERIC_HYDROXYLATION_RATE_(AOH)_CM3/MOLECULE*SEC_OPERA_PRED>
1.79498e-11

> <BIOCONCENTRATION_FACTOR_OPERA_PRED>
6.02371

> <BIODEGRADATION_HALF_LIFE_DAYS_DAYS_OPERA_PRED>
2.776

> <BOILING_POINT_DEGC_OPERA_PRED>
284.786

> <HENRYS_LAW_ATM-M3/MOLE_OPERA_PRED>
1.62739e-07

> <OPERA_KM_DAYS_OPERA_PRED>
0.360792

> <OCTANOL_AIR_PARTITION_COEFF_LOGKOA_OPERA_PRED>
8.51628

> <SOIL_ADSORPTION_COEFFICIENT_KOC_L/KG_OPERA_PRED>
161.869

> <OCTANOL_WATER_PARTITION_LOGP_OPERA_PRED>
1.33465

> <MELTING_POINT_DEGC_OPERA_PRED>
126.989

> <VAPOR_PRESSURE_MMHG_OPERA_PRED>
0.000110162

> <WATER_SOLUBILITY_MOL/L_OPERA_PRED>
0.0132724

> <TEST_BCF_TEST_PRED>
9.35406

> <BOILING_POINT_DEGC_TEST_PRED>
292.653

> <DENSITY_G/CM^3_TEST_PRED>
1.085

> <FLASH_POINT_DEGC_TEST_PRED>
146.194

> <MELTING_POINT_DEGC_TEST_PRED>
51.15

> <SURFACE_TENSION_DYN/CM_TEST_PRED>
-

> <THERMAL_CONDUCTIVITY_MW/(M*K)_TEST_PRED>
153.902

> <VISCOSITY_CP_CP_TEST_PRED>
6.62217

> <VAPOR_PRESSURE_MMHG_TEST_PRED>
0.000220293

> <WATER_SOLUBILITY_MOL/L_TEST_PRED>
0.0154525

> <AEGLVALUES>
0

> <ALGALTOX>
0

> <ARCHEMICALS>
0

> <ATSDRLST>
0

> <BISPHENOLS>
0

> <OEHHA>
0

> <CERAPP>
0

> <FUNNAMES>
0

> <KWRSJERPS>
0

> <EPACONS>
0

> <IRIS>
0

> <EPAHFR>
0

> <EUCOSMETICS>
0

> <FRENCHLIST>
0

> <HEROMAP>
0

> <ITNANTIBIOTIC>
0

> <KEMIMARKET>
0

> <MASSBANKREF>
0

> <MASSBANKEUSP>
0

> <NEMILIST>
0

> <NATADB>
0

> <NIOSHIDLH>
0

> <NIOSHICSC>
0

> <NIOSHNPG>
0

> <NIOSHSKIN>
0

> <NORMANCT15>
0

> <SFISHFLUORO>
0

> <NORMANPRI>
0

> <NORMANEWS>
0

> <PFASTRIER>
0

> <SWISSPHARMA>
0

> <PPRTVWEB>
0

> <STOCKHOLM>
0

> <STOFFIDENT>
0

> <SCDM>
0

> <EAWAGSURF>
0

> <SWISSPEST>
0

> <TOX21SL>
0

> <TOXCAST>
0

> <TOXCAST_E1K>
0

> <TOXCAST_PH1V2>
0

> <TOXCAST_PH2>
0

> <TOXCAST_PH3>
0

> <TOXCAST_PHASEI>
0

> <TOXCAST_PHASEII>
0

> <TOXCAST_PHASEIII>
0

> <TRIRELEASE>
0

> <TSCASURF>
0

> <UJIBADE>
0

> <ATHENSSUS>
0

> <UATHTARGETS>
0

$$$$
465824
  Mrv1611109301620562D          

  0  0  0     0  0            999 V3000
M  V30 BEGIN CTAB
M  V30 COUNTS 12 12 0 0 0
M  V30 BEGIN ATOM
M  V30 1 N 1.8357 2.7466 0 0
M  V30 2 C 0.502 3.5166 0 0
M  V30 3 C 3.1693 3.5166 0 0
M  V30 4 C 1.8357 1.2066 0 0
M  V30 5 C 3.1693 0.4366 0 0
M  V30 6 C 3.1693 -1.1034 0 0
M  V30 7 C 4.503 -1.8734 0 0
M  V30 8 C 4.503 -3.4134 0 0
M  V30 9 C 3.1693 -4.1834 0 0
M  V30 10 C 1.8357 -3.4134 0 0
M  V30 11 C 1.8357 -1.8734 0 0
M  V30 12 N 0.502 0.4366 0 0
M  V30 END ATOM
M  V30 BEGIN BOND
M  V30 1 1 1 2
M  V30 2 1 1 3
M  V30 3 1 1 4
M  V30 4 1 4 5
M  V30 5 1 5 6
M  V30 6 2 6 7
M  V30 7 1 7 8
M  V30 8 2 8 9
M  V30 9 1 9 10
M  V30 10 2 10 11
M  V30 11 1 11 6
M  V30 12 2 4 12
M  V30 END BOND
M  V30 END CTAB
M  END

> <INPUT>
C10H14N2

> <FOUND_BY>
MS Ready Formula

> <DTXCID_INDIVIDUAL_COMPONENT>
DTXCID80973723

> <FORMULA_INDIVIDUAL_COMPONENT>
C10H14N2

> <SMILES_INDIVIDUAL_COMPONENT>
CN(C)C(=N)CC1=CC=CC=C1

> <MAPPED_DTXSID>
DTXSID90515017

> <PREFERRED_NAME_DTXSID>
N,N-Dimethyl(phenyl)ethanimidamide

> <CASRN_DTXSID>
56776-16-0

> <FORMULA_MAPPED_DTXSID>
C10H14N2

> <SMILES_MAPPED_DTXSID>
CN(C)C(=N)CC1=CC=CC=C1

> <MS_READY_SMILES>
CN(C)C(=N)CC1=CC=CC=C1

> <INCHI_STRING_DTXCID>
InChI=1S/C10H14N2/c1-12(2)10(11)8-9-6-4-3-5-7-9/h3-7,11H,8H2,1-2H3

> <INCHIKEY_DTXCID>
VEHZLOXNVVKFAG-UHFFFAOYSA-N

> <MONOISOTOPIC_MASS_DTXCID>
162.115698459

> <EXPOCAST_MEDIAN_EXPOSURE_PREDICTION_MG/KG-BW/DAY>
-

> <EXPOCAST>
0

> <NHANES>
0

> <DATA_SOURCES>
1

> <TOXVAL_DATA>
0

> <TOXCAST_PERCENT_ACTIVE>
-

> <TOXCAST_NUMBER_OF_ASSAYS/TOTAL>
-

> <NUMBER_OF_PUBMED_ARTICLES>
-

> <PUBCHEM_DATA_SOURCES>
6

> <CPDAT_COUNT>
-

> <ATMOSPHERIC_HYDROXYLATION_RATE_(AOH)_CM3/MOLECULE*SEC_OPERA_PRED>
1.81996e-11

> <BIOCONCENTRATION_FACTOR_OPERA_PRED>
6.35476

> <BIODEGRADATION_HALF_LIFE_DAYS_DAYS_OPERA_PRED>
3.58186

> <BOILING_POINT_DEGC_OPERA_PRED>
268.763

> <HENRYS_LAW_ATM-M3/MOLE_OPERA_PRED>
9.11674e-08

> <OPERA_KM_DAYS_OPERA_PRED>
0.0925177

> <OCTANOL_AIR_PARTITION_COEFF_LOGKOA_OPERA_PRED>
6.53661

> <SOIL_ADSORPTION_COEFFICIENT_KOC_L/KG_OPERA_PRED>
62.3603

> <OCTANOL_WATER_PARTITION_LOGP_OPERA_PRED>
1.62577

> <MELTING_POINT_DEGC_OPERA_PRED>
69.162

> <VAPOR_PRESSURE_MMHG_OPERA_PRED>
0.0234399

> <WATER_SOLUBILITY_MOL/L_OPERA_PRED>
0.00375288

> <TEST_BCF_TEST_PRED>
-

> <BOILING_POINT_DEGC_TEST_PRED>
-

> <DENSITY_G/CM^3_TEST_PRED>
1.126

> <FLASH_POINT_DEGC_TEST_PRED>
120.804

> <MELTING_POINT_DEGC_TEST_PRED>
107.952

> <SURFACE_TENSION_DYN/CM_TEST_PRED>
-

> <THERMAL_CONDUCTIVITY_MW/(M*K)_TEST_PRED>
-

> <VISCOSITY_CP_CP_TEST_PRED>
-

> <VAPOR_PRESSURE_MMHG_TEST_PRED>
-

> <WATER_SOLUBILITY_MOL/L_TEST_PRED>
-

> <AEGLVALUES>
0

> <ALGALTOX>
0

> <ARCHEMICALS>
0

> <ATSDRLST>
0

> <BISPHENOLS>
0

> <OEHHA>
0

> <CERAPP>
0

> <FUNNAMES>
0

> <KWRSJERPS>
0

> <EPACONS>
0

> <IRIS>
0

> <EPAHFR>
0

> <EUCOSMETICS>
0

> <FRENCHLIST>
0

> <HEROMAP>
0

> <ITNANTIBIOTIC>
0

> <KEMIMARKET>
0

> <MASSBANKREF>
0

> <MASSBANKEUSP>
0

> <NEMILIST>
0

> <NATADB>
0

> <NIOSHIDLH>
0

> <NIOSHICSC>
0

> <NIOSHNPG>
0

> <NIOSHSKIN>
0

> <NORMANCT15>
0

> <SFISHFLUORO>
0

> <NORMANPRI>
0

> <NORMANEWS>
0

> <PFASTRIER>
0

> <SWISSPHARMA>
0

> <PPRTVWEB>
0

> <STOCKHOLM>
0

> <STOFFIDENT>
0

> <SCDM>
0

> <EAWAGSURF>
0

> <SWISSPEST>
0

> <TOX21SL>
0

> <TOXCAST>
0

> <TOXCAST_E1K>
0

> <TOXCAST_PH1V2>
0

> <TOXCAST_PH2>
0

> <TOXCAST_PH3>
0

> <TOXCAST_PHASEI>
0

> <TOXCAST_PHASEII>
0

> <TOXCAST_PHASEIII>
0

> <TRIRELEASE>
0

> <TSCASURF>
0

> <UJIBADE>
0

> <ATHENSSUS>
0

> <UATHTARGETS>
0

$$$$
472269
  Mrv1611109301621062D          

  0  0  0     0  0            999 V3000
M  V30 BEGIN CTAB
M  V30 COUNTS 12 13 0 0 0
M  V30 BEGIN ATOM
M  V30 1 N -1.4945 0.0546 0 0
M  V30 2 C -1.9704 1.5193 0 0
M  V30 3 C -2.3997 -1.1912 0 0
M  V30 4 C -1.4945 -2.4371 0 0
M  V30 5 C -0.0299 -1.9612 0 0
M  V30 6 C -0.0299 -0.4212 0 0
M  V30 7 C 1.3038 0.3488 0 0
M  V30 8 C 1.3038 1.8888 0 0
M  V30 9 N 2.6374 -0.4212 0 0
M  V30 10 C 2.6374 -1.9612 0 0
M  V30 11 C 1.3038 -2.7312 0 0
M  V30 12 C 1.3038 -4.2712 0 0
M  V30 END ATOM
M  V30 BEGIN BOND
M  V30 1 1 1 2
M  V30 2 1 1 3
M  V30 3 2 3 4
M  V30 4 1 4 5
M  V30 5 2 5 6
M  V30 6 1 6 1
M  V30 7 1 6 7
M  V30 8 1 7 8
M  V30 9 2 7 9
M  V30 10 1 9 10
M  V30 11 1 10 11
M  V30 12 1 11 5
M  V30 13 1 11 12
M  V30 END BOND
M  V30 END CTAB
M  END

> <INPUT>
C10H14N2

> <FOUND_BY>
MS Ready Formula

> <DTXCID_INDIVIDUAL_COMPONENT>
DTXCID20975827

> <FORMULA_INDIVIDUAL_COMPONENT>
C10H14N2

> <SMILES_INDIVIDUAL_COMPONENT>
CC1CN=C(C)C2=C1C=CN2C

> <MAPPED_DTXSID>
DTXSID60521463

> <PREFERRED_NAME_DTXSID>
1,4,7-Trimethyl-4,5-dihydro-1H-pyrrolo[2,3-c]pyridine

> <CASRN_DTXSID>
87870-16-4

> <FORMULA_MAPPED_DTXSID>
C10H14N2

> <SMILES_MAPPED_DTXSID>
CC1CN=C(C)C2=C1C=CN2C

> <MS_READY_SMILES>
CC1CN=C(C)C2=C1C=CN2C

> <INCHI_STRING_DTXCID>
InChI=1S/C10H14N2/c1-7-6-11-8(2)10-9(7)4-5-12(10)3/h4-5,7H,6H2,1-3H3

> <INCHIKEY_DTXCID>
FNZXGIBVMHUJBP-UHFFFAOYSA-N

> <MONOISOTOPIC_MASS_DTXCID>
162.115698459

> <EXPOCAST_MEDIAN_EXPOSURE_PREDICTION_MG/KG-BW/DAY>
-

> <EXPOCAST>
0

> <NHANES>
0

> <DATA_SOURCES>
1

> <TOXVAL_DATA>
0

> <TOXCAST_PERCENT_ACTIVE>
-

> <TOXCAST_NUMBER_OF_ASSAYS/TOTAL>
-

> <NUMBER_OF_PUBMED_ARTICLES>
-

> <PUBCHEM_DATA_SOURCES>
5

> <CPDAT_COUNT>
-

> <ATMOSPHERIC_HYDROXYLATION_RATE_(AOH)_CM3/MOLECULE*SEC_OPERA_PRED>
2.63943e-11

> <BIOCONCENTRATION_FACTOR_OPERA_PRED>
8.36744

> <BIODEGRADATION_HALF_LIFE_DAYS_DAYS_OPERA_PRED>
3.35998

> <BOILING_POINT_DEGC_OPERA_PRED>
227.049

> <HENRYS_LAW_ATM-M3/MOLE_OPERA_PRED>
0.00013539

> <OPERA_KM_DAYS_OPERA_PRED>
0.325636

> <OCTANOL_AIR_PARTITION_COEFF_LOGKOA_OPERA_PRED>
5.08015

> <SOIL_ADSORPTION_COEFFICIENT_KOC_L/KG_OPERA_PRED>
109.263

> <OCTANOL_WATER_PARTITION_LOGP_OPERA_PRED>
2.01127

> <MELTING_POINT_DEGC_OPERA_PRED>
-13.9446

> <VAPOR_PRESSURE_MMHG_OPERA_PRED>
0.00537255

> <WATER_SOLUBILITY_MOL/L_OPERA_PRED>
0.525983

> <TEST_BCF_TEST_PRED>
31.842

> <BOILING_POINT_DEGC_TEST_PRED>
246.934

> <DENSITY_G/CM^3_TEST_PRED>
1.028

> <FLASH_POINT_DEGC_TEST_PRED>
103.386

> <MELTING_POINT_DEGC_TEST_PRED>
44.535

> <SURFACE_TENSION_DYN/CM_TEST_PRED>
34.893

> <THERMAL_CONDUCTIVITY_MW/(M*K)_TEST_PRED>
-

> <VISCOSITY_CP_CP_TEST_PRED>
-

> <VAPOR_PRESSURE_MMHG_TEST_PRED>
0.00386367

> <WATER_SOLUBILITY_MOL/L_TEST_PRED>
0.0104472

> <AEGLVALUES>
0

> <ALGALTOX>
0

> <ARCHEMICALS>
0

> <ATSDRLST>
0

> <BISPHENOLS>
0

> <OEHHA>
0

> <CERAPP>
0

> <FUNNAMES>
0

> <KWRSJERPS>
0

> <EPACONS>
0

> <IRIS>
0

> <EPAHFR>
0

> <EUCOSMETICS>
0

> <FRENCHLIST>
0

> <HEROMAP>
0

> <ITNANTIBIOTIC>
0

> <KEMIMARKET>
0

> <MASSBANKREF>
0

> <MASSBANKEUSP>
0

> <NEMILIST>
0

> <NATADB>
0

> <NIOSHIDLH>
0

> <NIOSHICSC>
0

> <NIOSHNPG>
0

> <NIOSHSKIN>
0

> <NORMANCT15>
0

> <SFISHFLUORO>
0

> <NORMANPRI>
0

> <NORMANEWS>
0

> <PFASTRIER>
0

> <SWISSPHARMA>
0

> <PPRTVWEB>
0

> <STOCKHOLM>
0

> <STOFFIDENT>
0

> <SCDM>
0

> <EAWAGSURF>
0

> <SWISSPEST>
0

> <TOX21SL>
0

> <TOXCAST>
0

> <TOXCAST_E1K>
0

> <TOXCAST_PH1V2>
0

> <TOXCAST_PH2>
0

> <TOXCAST_PH3>
0

> <TOXCAST_PHASEI>
0

> <TOXCAST_PHASEII>
0

> <TOXCAST_PHASEIII>
0

> <TRIRELEASE>
0

> <TSCASURF>
0

> <UJIBADE>
0

> <ATHENSSUS>
0

> <UATHTARGETS>
0

$$$$

  Mrv1533009301519362D          

  0  0  0     0  0            999 V3000
M  V30 BEGIN CTAB
M  V30 COUNTS 12 13 0 0 1
M  V30 BEGIN ATOM
M  V30 1 N 7.2048 -1.2393 0 0
M  V30 2 N 7.2048 1.2393 0 0
M  V30 3 C 8.1036 0 0 0
M  V30 4 C 5.7475 0.77 0 0
M  V30 5 C 5.7475 -0.77 0 0
M  V30 6 C 9.6436 0 0 0
M  V30 7 C 7.683 2.7031 0 0
M  V30 8 C 7.683 -2.7031 0 0
M  V30 9 C 4.4137 -1.54 0 0
M  V30 10 C 4.4137 1.54 0 0
M  V30 11 C 3.08 -0.77 0 0
M  V30 12 C 3.08 0.77 0 0
M  V30 END ATOM
M  V30 BEGIN BOND
M  V30 1 1 1 3
M  V30 2 1 1 5
M  V30 3 1 1 8
M  V30 4 1 2 3
M  V30 5 1 2 4
M  V30 6 1 2 7
M  V30 7 1 3 6
M  V30 8 1 4 5
M  V30 9 2 4 10
M  V30 10 2 5 9
M  V30 11 1 9 11
M  V30 12 1 10 12
M  V30 13 2 11 12
M  V30 END BOND
M  V30 END CTAB
M  END

> <INPUT>
C10H14N2

> <FOUND_BY>
MS Ready Formula

> <DTXCID_INDIVIDUAL_COMPONENT>
DTXCID10492159

> <FORMULA_INDIVIDUAL_COMPONENT>
C10H14N2

> <SMILES_INDIVIDUAL_COMPONENT>
CC1N(C)C2=CC=CC=C2N1C

> <MAPPED_DTXSID>
DTXSID50541372

> <PREFERRED_NAME_DTXSID>
1,2,3-Trimethyl-2,3-dihydro-1H-benzimidazole

> <CASRN_DTXSID>
3652-99-1

> <FORMULA_MAPPED_DTXSID>
C10H14N2

> <SMILES_MAPPED_DTXSID>
CC1N(C)C2=CC=CC=C2N1C

> <MS_READY_SMILES>
CC1N(C)C2=CC=CC=C2N1C

> <INCHI_STRING_DTXCID>
InChI=1S/C10H14N2/c1-8-11(2)9-6-4-5-7-10(9)12(8)3/h4-8H,1-3H3

> <INCHIKEY_DTXCID>
RVBVMCLABNKDQO-UHFFFAOYSA-N

> <MONOISOTOPIC_MASS_DTXCID>
162.115698459

> <EXPOCAST_MEDIAN_EXPOSURE_PREDICTION_MG/KG-BW/DAY>
-

> <EXPOCAST>
0

> <NHANES>
0

> <DATA_SOURCES>
1

> <TOXVAL_DATA>
0

> <TOXCAST_PERCENT_ACTIVE>
-

> <TOXCAST_NUMBER_OF_ASSAYS/TOTAL>
-

> <NUMBER_OF_PUBMED_ARTICLES>
-

> <PUBCHEM_DATA_SOURCES>
9

> <CPDAT_COUNT>
-

> <ATMOSPHERIC_HYDROXYLATION_RATE_(AOH)_CM3/MOLECULE*SEC_OPERA_PRED>
1.83677e-11

> <BIOCONCENTRATION_FACTOR_OPERA_PRED>
4.35107

> <BIODEGRADATION_HALF_LIFE_DAYS_DAYS_OPERA_PRED>
6.00813

> <BOILING_POINT_DEGC_OPERA_PRED>
258.932

> <HENRYS_LAW_ATM-M3/MOLE_OPERA_PRED>
1.07337e-05

> <OPERA_KM_DAYS_OPERA_PRED>
0.419586

> <OCTANOL_AIR_PARTITION_COEFF_LOGKOA_OPERA_PRED>
5.98098

> <SOIL_ADSORPTION_COEFFICIENT_KOC_L/KG_OPERA_PRED>
114.768

> <OCTANOL_WATER_PARTITION_LOGP_OPERA_PRED>
1.22693

> <MELTING_POINT_DEGC_OPERA_PRED>
68.14

> <VAPOR_PRESSURE_MMHG_OPERA_PRED>
0.00442303

> <WATER_SOLUBILITY_MOL/L_OPERA_PRED>
0.0726077

> <TEST_BCF_TEST_PRED>
45.8142

> <BOILING_POINT_DEGC_TEST_PRED>
246.085

> <DENSITY_G/CM^3_TEST_PRED>
1.013

> <FLASH_POINT_DEGC_TEST_PRED>
89.12

> <MELTING_POINT_DEGC_TEST_PRED>
5.202

> <SURFACE_TENSION_DYN/CM_TEST_PRED>
-

> <THERMAL_CONDUCTIVITY_MW/(M*K)_TEST_PRED>
-

> <VISCOSITY_CP_CP_TEST_PRED>
4.72063

> <VAPOR_PRESSURE_MMHG_TEST_PRED>
0.146893

> <WATER_SOLUBILITY_MOL/L_TEST_PRED>
0.0120226

> <AEGLVALUES>
0

> <ALGALTOX>
0

> <ARCHEMICALS>
0

> <ATSDRLST>
0

> <BISPHENOLS>
0

> <OEHHA>
0

> <CERAPP>
0

> <FUNNAMES>
0

> <KWRSJERPS>
0

> <EPACONS>
0

> <IRIS>
0

> <EPAHFR>
0

> <EUCOSMETICS>
0

> <FRENCHLIST>
0

> <HEROMAP>
0

> <ITNANTIBIOTIC>
0

> <KEMIMARKET>
0

> <MASSBANKREF>
0

> <MASSBANKEUSP>
0

> <NEMILIST>
0

> <NATADB>
0

> <NIOSHIDLH>
0

> <NIOSHICSC>
0

> <NIOSHNPG>
0

> <NIOSHSKIN>
0

> <NORMANCT15>
0

> <SFISHFLUORO>
0

> <NORMANPRI>
0

> <NORMANEWS>
0

> <PFASTRIER>
0

> <SWISSPHARMA>
0

> <PPRTVWEB>
0

> <STOCKHOLM>
0

> <STOFFIDENT>
0

> <SCDM>
0

> <EAWAGSURF>
0

> <SWISSPEST>
0

> <TOX21SL>
0

> <TOXCAST>
0

> <TOXCAST_E1K>
0

> <TOXCAST_PH1V2>
0

> <TOXCAST_PH2>
0

> <TOXCAST_PH3>
0

> <TOXCAST_PHASEI>
0

> <TOXCAST_PHASEII>
0

> <TOXCAST_PHASEIII>
0

> <TRIRELEASE>
0

> <TSCASURF>
0

> <UJIBADE>
0

> <ATHENSSUS>
0

> <UATHTARGETS>
0

$$$$

  Mrv1533009301519362D          

  0  0  0     0  0            999 V3000
M  V30 BEGIN CTAB
M  V30 COUNTS 12 13 0 0 1
M  V30 BEGIN ATOM
M  V30 1 N 8.5197 0.1799 0 0
M  V30 2 N 4.4137 -2.0979 0 0
M  V30 3 C 8.5197 1.7842 0 0
M  V30 4 C 7.1241 2.5754 0 0
M  V30 5 C 7.1241 -0.6113 0 0
M  V30 6 C 5.7475 0.2121 0 0
M  V30 7 C 5.7475 1.7521 0 0
M  V30 8 C 4.4137 -0.5579 0 0
M  V30 9 C 4.4137 2.5221 0 0
M  V30 10 C 9.8502 -0.5953 0 0
M  V30 11 C 3.08 0.2121 0 0
M  V30 12 C 3.08 1.7521 0 0
M  V30 END ATOM
M  V30 BEGIN BOND
M  V30 1 1 1 3
M  V30 2 1 1 5
M  V30 3 1 1 10
M  V30 4 1 2 8
M  V30 5 1 3 4
M  V30 6 1 4 7
M  V30 7 1 5 6
M  V30 8 2 6 7
M  V30 9 1 6 8
M  V30 10 1 7 9
M  V30 11 2 8 11
M  V30 12 2 9 12
M  V30 13 1 11 12
M  V30 END BOND
M  V30 END CTAB
M  END

> <INPUT>
C10H14N2

> <FOUND_BY>
MS Ready Formula

> <DTXCID_INDIVIDUAL_COMPONENT>
DTXCID60493838

> <FORMULA_INDIVIDUAL_COMPONENT>
C10H14N2

> <SMILES_INDIVIDUAL_COMPONENT>
CN1CCC2=C(C1)C(N)=CC=C2

> <MAPPED_DTXSID>
DTXSID90543052

> <PREFERRED_NAME_DTXSID>
2-Methyl-1,2,3,4-tetrahydroisoquinolin-8-amine

> <CASRN_DTXSID>
14788-34-2

> <FORMULA_MAPPED_DTXSID>
C10H14N2

> <SMILES_MAPPED_DTXSID>
CN1CCC2=C(C1)C(N)=CC=C2

> <MS_READY_SMILES>
CN1CCC2=C(C1)C(N)=CC=C2

> <INCHI_STRING_DTXCID>
InChI=1S/C10H14N2/c1-12-6-5-8-3-2-4-10(11)9(8)7-12/h2-4H,5-7,11H2,1H3

> <INCHIKEY_DTXCID>
PXAVAZKTFFJJEU-UHFFFAOYSA-N

> <MONOISOTOPIC_MASS_DTXCID>
162.115698459

> <EXPOCAST_MEDIAN_EXPOSURE_PREDICTION_MG/KG-BW/DAY>
-

> <EXPOCAST>
0

> <NHANES>
0

> <DATA_SOURCES>
1

> <TOXVAL_DATA>
0

> <TOXCAST_PERCENT_ACTIVE>
-

> <TOXCAST_NUMBER_OF_ASSAYS/TOTAL>
-

> <NUMBER_OF_PUBMED_ARTICLES>
-

> <PUBCHEM_DATA_SOURCES>
22

> <CPDAT_COUNT>
-

> <ATMOSPHERIC_HYDROXYLATION_RATE_(AOH)_CM3/MOLECULE*SEC_OPERA_PRED>
1.78314e-11

> <BIOCONCENTRATION_FACTOR_OPERA_PRED>
6.12498

> <BIODEGRADATION_HALF_LIFE_DAYS_DAYS_OPERA_PRED>
2.56855

> <BOILING_POINT_DEGC_OPERA_PRED>
284.668

> <HENRYS_LAW_ATM-M3/MOLE_OPERA_PRED>
1.62565e-07

> <OPERA_KM_DAYS_OPERA_PRED>
0.351551

> <OCTANOL_AIR_PARTITION_COEFF_LOGKOA_OPERA_PRED>
8.51628

> <SOIL_ADSORPTION_COEFFICIENT_KOC_L/KG_OPERA_PRED>
163.048

> <OCTANOL_WATER_PARTITION_LOGP_OPERA_PRED>
1.33838

> <MELTING_POINT_DEGC_OPERA_PRED>
127.06

> <VAPOR_PRESSURE_MMHG_OPERA_PRED>
0.000109249

> <WATER_SOLUBILITY_MOL/L_OPERA_PRED>
0.00777258

> <TEST_BCF_TEST_PRED>
8.24138

> <BOILING_POINT_DEGC_TEST_PRED>
286.878

> <DENSITY_G/CM^3_TEST_PRED>
1.077

> <FLASH_POINT_DEGC_TEST_PRED>
141.418

> <MELTING_POINT_DEGC_TEST_PRED>
66.234

> <SURFACE_TENSION_DYN/CM_TEST_PRED>
-

> <THERMAL_CONDUCTIVITY_MW/(M*K)_TEST_PRED>
160.34

> <VISCOSITY_CP_CP_TEST_PRED>
6.76083

> <VAPOR_PRESSURE_MMHG_TEST_PRED>
0.000460257

> <WATER_SOLUBILITY_MOL/L_TEST_PRED>
0.0239332

> <AEGLVALUES>
0

> <ALGALTOX>
0

> <ARCHEMICALS>
0

> <ATSDRLST>
0

> <BISPHENOLS>
0

> <OEHHA>
0

> <CERAPP>
0

> <FUNNAMES>
0

> <KWRSJERPS>
0

> <EPACONS>
0

> <IRIS>
0

> <EPAHFR>
0

> <EUCOSMETICS>
0

> <FRENCHLIST>
0

> <HEROMAP>
0

> <ITNANTIBIOTIC>
0

> <KEMIMARKET>
0

> <MASSBANKREF>
0

> <MASSBANKEUSP>
0

> <NEMILIST>
0

> <NATADB>
0

> <NIOSHIDLH>
0

> <NIOSHICSC>
0

> <NIOSHNPG>
0

> <NIOSHSKIN>
0

> <NORMANCT15>
0

> <SFISHFLUORO>
0

> <NORMANPRI>
0

> <NORMANEWS>
0

> <PFASTRIER>
0

> <SWISSPHARMA>
0

> <PPRTVWEB>
0

> <STOCKHOLM>
0

> <STOFFIDENT>
0

> <SCDM>
0

> <EAWAGSURF>
0

> <SWISSPEST>
0

> <TOX21SL>
0

> <TOXCAST>
0

> <TOXCAST_E1K>
0

> <TOXCAST_PH1V2>
0

> <TOXCAST_PH2>
0

> <TOXCAST_PH3>
0

> <TOXCAST_PHASEI>
0

> <TOXCAST_PHASEII>
0

> <TOXCAST_PHASEIII>
0

> <TRIRELEASE>
0

> <TSCASURF>
0

> <UJIBADE>
0

> <ATHENSSUS>
0

> <UATHTARGETS>
0

$$$$

  Mrv1533009301519372D          

  0  0  0     0  0            999 V3000
M  V30 BEGIN CTAB
M  V30 COUNTS 12 13 0 0 0
M  V30 BEGIN ATOM
M  V30 1 N 4.0348 -0.4008 0 0
M  V30 2 N 11.5112 1.1762 0 0
M  V30 3 C 6.2044 1.3293 0 0
M  V30 4 C 7.4084 0.3692 0 0
M  V30 5 C 6.2044 -2.131 0 0
M  V30 6 C 7.4084 -1.171 0 0
M  V30 7 C 4.7031 0.9865 0 0
M  V30 8 C 4.7031 -1.7885 0 0
M  V30 9 C 8.7851 1.1924 0 0
M  V30 10 C 8.7851 -1.9943 0 0
M  V30 11 C 10.1804 0.4011 0 0
M  V30 12 C 10.1804 -1.2029 0 0
M  V30 END ATOM
M  V30 BEGIN BOND
M  V30 1 1 1 7
M  V30 2 1 1 8
M  V30 3 1 2 11
M  V30 4 1 3 4
M  V30 5 1 3 7
M  V30 6 2 4 6
M  V30 7 1 4 9
M  V30 8 1 5 6
M  V30 9 1 5 8
M  V30 10 1 6 10
M  V30 11 2 9 11
M  V30 12 2 10 12
M  V30 13 1 11 12
M  V30 END BOND
M  V30 END CTAB
M  END

> <INPUT>
C10H14N2

> <FOUND_BY>
MS Ready Formula

> <DTXCID_INDIVIDUAL_COMPONENT>
DTXCID90497561

> <FORMULA_INDIVIDUAL_COMPONENT>
C10H14N2

> <SMILES_INDIVIDUAL_COMPONENT>
NC1=CC2=C(CCNCC2)C=C1

> <MAPPED_DTXSID>
DTXSID60546777

> <PREFERRED_NAME_DTXSID>
2,3,4,5-Tetrahydro-1H-3-benzazepin-7-amine

> <CASRN_DTXSID>
107393-73-7

> <FORMULA_MAPPED_DTXSID>
C10H14N2

> <SMILES_MAPPED_DTXSID>
NC1=CC2=C(CCNCC2)C=C1

> <MS_READY_SMILES>
NC1=CC2=C(CCNCC2)C=C1

> <INCHI_STRING_DTXCID>
InChI=1S/C10H14N2/c11-10-2-1-8-3-5-12-6-4-9(8)7-10/h1-2,7,12H,3-6,11H2

> <INCHIKEY_DTXCID>
LOXPKSAIAHLVML-UHFFFAOYSA-N

> <MONOISOTOPIC_MASS_DTXCID>
162.115698459

> <EXPOCAST_MEDIAN_EXPOSURE_PREDICTION_MG/KG-BW/DAY>
-

> <EXPOCAST>
0

> <NHANES>
0

> <DATA_SOURCES>
1

> <TOXVAL_DATA>
0

> <TOXCAST_PERCENT_ACTIVE>
-

> <TOXCAST_NUMBER_OF_ASSAYS/TOTAL>
-

> <NUMBER_OF_PUBMED_ARTICLES>
-

> <PUBCHEM_DATA_SOURCES>
35

> <CPDAT_COUNT>
-

> <ATMOSPHERIC_HYDROXYLATION_RATE_(AOH)_CM3/MOLECULE*SEC_OPERA_PRED>
2.74511e-11

> <BIOCONCENTRATION_FACTOR_OPERA_PRED>
10.0968

> <BIODEGRADATION_HALF_LIFE_DAYS_DAYS_OPERA_PRED>
4.02009

> <BOILING_POINT_DEGC_OPERA_PRED>
264.99

> <HENRYS_LAW_ATM-M3/MOLE_OPERA_PRED>
1.70306e-10

> <OPERA_KM_DAYS_OPERA_PRED>
0.171342

> <OCTANOL_AIR_PARTITION_COEFF_LOGKOA_OPERA_PRED>
7.96001

> <SOIL_ADSORPTION_COEFFICIENT_KOC_L/KG_OPERA_PRED>
111.642

> <OCTANOL_WATER_PARTITION_LOGP_OPERA_PRED>
1.65801

> <MELTING_POINT_DEGC_OPERA_PRED>
110.241

> <VAPOR_PRESSURE_MMHG_OPERA_PRED>
3.36239e-05

> <WATER_SOLUBILITY_MOL/L_OPERA_PRED>
0.377173

> <TEST_BCF_TEST_PRED>
-

> <BOILING_POINT_DEGC_TEST_PRED>
301.9

> <DENSITY_G/CM^3_TEST_PRED>
1.119

> <FLASH_POINT_DEGC_TEST_PRED>
140.617

> <MELTING_POINT_DEGC_TEST_PRED>
81.519

> <SURFACE_TENSION_DYN/CM_TEST_PRED>
-

> <THERMAL_CONDUCTIVITY_MW/(M*K)_TEST_PRED>
180.187

> <VISCOSITY_CP_CP_TEST_PRED>
18.6638

> <VAPOR_PRESSURE_MMHG_TEST_PRED>
8.14704e-05

> <WATER_SOLUBILITY_MOL/L_TEST_PRED>
0.020797

> <AEGLVALUES>
0

> <ALGALTOX>
0

> <ARCHEMICALS>
0

> <ATSDRLST>
0

> <BISPHENOLS>
0

> <OEHHA>
0

> <CERAPP>
0

> <FUNNAMES>
0

> <KWRSJERPS>
0

> <EPACONS>
0

> <IRIS>
0

> <EPAHFR>
0

> <EUCOSMETICS>
0

> <FRENCHLIST>
0

> <HEROMAP>
0

> <ITNANTIBIOTIC>
0

> <KEMIMARKET>
0

> <MASSBANKREF>
0

> <MASSBANKEUSP>
0

> <NEMILIST>
0

> <NATADB>
0

> <NIOSHIDLH>
0

> <NIOSHICSC>
0

> <NIOSHNPG>
0

> <NIOSHSKIN>
0

> <NORMANCT15>
0

> <SFISHFLUORO>
0

> <NORMANPRI>
0

> <NORMANEWS>
0

> <PFASTRIER>
0

> <SWISSPHARMA>
0

> <PPRTVWEB>
0

> <STOCKHOLM>
0

> <STOFFIDENT>
0

> <SCDM>
0

> <EAWAGSURF>
0

> <SWISSPEST>
0

> <TOX21SL>
0

> <TOXCAST>
0

> <TOXCAST_E1K>
0

> <TOXCAST_PH1V2>
0

> <TOXCAST_PH2>
0

> <TOXCAST_PH3>
0

> <TOXCAST_PHASEI>
0

> <TOXCAST_PHASEII>
0

> <TOXCAST_PHASEIII>
0

> <TRIRELEASE>
0

> <TSCASURF>
0

> <UJIBADE>
0

> <ATHENSSUS>
0

> <UATHTARGETS>
0

$$$$
514960
  Mrv1611109301618062D          

  0  0  0     0  0            999 V3000
M  V30 BEGIN CTAB
M  V30 COUNTS 12 13 0 0 0
M  V30 BEGIN ATOM
M  V30 1 N -5.0576 0.4767 0 0
M  V30 2 C -3.724 -0.2933 0 0
M  V30 3 C -2.3904 0.4767 0 0
M  V30 4 C -1.0567 -0.2933 0 0
M  V30 5 C 0.277 0.4767 0 0
M  V30 6 C 1.6107 -0.2933 0 0
M  V30 7 C 1.6107 -1.8333 0 0
M  V30 8 C 0.277 -2.6033 0 0
M  V30 9 C -1.0567 -1.8333 0 0
M  V30 10 C -2.3904 -2.6033 0 0
M  V30 11 C -3.724 -1.8333 0 0
M  V30 12 N 2.9443 0.4767 0 0
M  V30 END ATOM
M  V30 BEGIN BOND
M  V30 1 1 1 2
M  V30 2 1 2 3
M  V30 3 1 3 4
M  V30 4 2 4 5
M  V30 5 1 5 6
M  V30 6 2 6 7
M  V30 7 1 7 8
M  V30 8 2 8 9
M  V30 9 1 9 4
M  V30 10 1 9 10
M  V30 11 1 10 11
M  V30 12 1 11 2
M  V30 13 1 6 12
M  V30 END BOND
M  V30 END CTAB
M  END

> <INPUT>
C10H14N2

> <FOUND_BY>
MS Ready Formula

> <DTXCID_INDIVIDUAL_COMPONENT>
DTXCID00945008

> <FORMULA_INDIVIDUAL_COMPONENT>
C10H14N2

> <SMILES_INDIVIDUAL_COMPONENT>
NC1CCC2=CC=C(N)C=C2C1

> <MAPPED_DTXSID>
DTXSID70564184

> <PREFERRED_NAME_DTXSID>
1,2,3,4-Tetrahydronaphthalene-2,7-diamine

> <CASRN_DTXSID>
103393-75-5

> <FORMULA_MAPPED_DTXSID>
C10H14N2

> <SMILES_MAPPED_DTXSID>
NC1CCC2=C(C1)C=C(N)C=C2

> <MS_READY_SMILES>
NC1CCC2=CC=C(N)C=C2C1

> <INCHI_STRING_DTXCID>
InChI=1S/C10H14N2/c11-9-3-1-7-2-4-10(12)6-8(7)5-9/h1,3,5,10H,2,4,6,11-12H2

> <INCHIKEY_DTXCID>
FISUQAVKGARTJH-UHFFFAOYSA-N

> <MONOISOTOPIC_MASS_DTXCID>
162.115698459

> <EXPOCAST_MEDIAN_EXPOSURE_PREDICTION_MG/KG-BW/DAY>
-

> <EXPOCAST>
0

> <NHANES>
0

> <DATA_SOURCES>
1

> <TOXVAL_DATA>
0

> <TOXCAST_PERCENT_ACTIVE>
-

> <TOXCAST_NUMBER_OF_ASSAYS/TOTAL>
-

> <NUMBER_OF_PUBMED_ARTICLES>
-

> <PUBCHEM_DATA_SOURCES>
17

> <CPDAT_COUNT>
-

> <ATMOSPHERIC_HYDROXYLATION_RATE_(AOH)_CM3/MOLECULE*SEC_OPERA_PRED>
2.79036e-11

> <BIOCONCENTRATION_FACTOR_OPERA_PRED>
11.5968

> <BIODEGRADATION_HALF_LIFE_DAYS_DAYS_OPERA_PRED>
4.18778

> <BOILING_POINT_DEGC_OPERA_PRED>
267.276

> <HENRYS_LAW_ATM-M3/MOLE_OPERA_PRED>
1.71772e-10

> <OPERA_KM_DAYS_OPERA_PRED>
0.17683

> <OCTANOL_AIR_PARTITION_COEFF_LOGKOA_OPERA_PRED>
8.07088

> <SOIL_ADSORPTION_COEFFICIENT_KOC_L/KG_OPERA_PRED>
113.441

> <OCTANOL_WATER_PARTITION_LOGP_OPERA_PRED>
1.00863

> <MELTING_POINT_DEGC_OPERA_PRED>
134.048

> <VAPOR_PRESSURE_MMHG_OPERA_PRED>
0.000165525

> <WATER_SOLUBILITY_MOL/L_OPERA_PRED>
0.0219887

> <TEST_BCF_TEST_PRED>
4.98884

> <BOILING_POINT_DEGC_TEST_PRED>
292.728

> <DENSITY_G/CM^3_TEST_PRED>
1.124

> <FLASH_POINT_DEGC_TEST_PRED>
163.07

> <MELTING_POINT_DEGC_TEST_PRED>
115.998

> <SURFACE_TENSION_DYN/CM_TEST_PRED>
-

> <THERMAL_CONDUCTIVITY_MW/(M*K)_TEST_PRED>
-

> <VISCOSITY_CP_CP_TEST_PRED>
12.8233

> <VAPOR_PRESSURE_MMHG_TEST_PRED>
8.531e-05

> <WATER_SOLUBILITY_MOL/L_TEST_PRED>
0.00755092

> <AEGLVALUES>
0

> <ALGALTOX>
0

> <ARCHEMICALS>
0

> <ATSDRLST>
0

> <BISPHENOLS>
0

> <OEHHA>
0

> <CERAPP>
0

> <FUNNAMES>
0

> <KWRSJERPS>
0

> <EPACONS>
0

> <IRIS>
0

> <EPAHFR>
0

> <EUCOSMETICS>
0

> <FRENCHLIST>
0

> <HEROMAP>
0

> <ITNANTIBIOTIC>
0

> <KEMIMARKET>
0

> <MASSBANKREF>
0

> <MASSBANKEUSP>
0

> <NEMILIST>
0

> <NATADB>
0

> <NIOSHIDLH>
0

> <NIOSHICSC>
0

> <NIOSHNPG>
0

> <NIOSHSKIN>
0

> <NORMANCT15>
0

> <SFISHFLUORO>
0

> <NORMANPRI>
0

> <NORMANEWS>
0

> <PFASTRIER>
0

> <SWISSPHARMA>
0

> <PPRTVWEB>
0

> <STOCKHOLM>
0

> <STOFFIDENT>
0

> <SCDM>
0

> <EAWAGSURF>
0

> <SWISSPEST>
0

> <TOX21SL>
0

> <TOXCAST>
0

> <TOXCAST_E1K>
0

> <TOXCAST_PH1V2>
0

> <TOXCAST_PH2>
0

> <TOXCAST_PH3>
0

> <TOXCAST_PHASEI>
0

> <TOXCAST_PHASEII>
0

> <TOXCAST_PHASEIII>
0

> <TRIRELEASE>
0

> <TSCASURF>
0

> <UJIBADE>
0

> <ATHENSSUS>
0

> <UATHTARGETS>
0

$$$$

  Mrv1533009301519462D          

  0  0  0     0  0            999 V3000
M  V30 BEGIN CTAB
M  V30 COUNTS 12 13 0 0 0
M  V30 BEGIN ATOM
M  V30 1 N 8.4149 -0.3851 0 0
M  V30 2 N 7.0812 1.9251 0 0
M  V30 3 C 7.0812 0.3851 0 0
M  V30 4 C 9.7485 1.9251 0 0
M  V30 5 C 9.7485 0.3851 0 0
M  V30 6 C 8.4149 2.6951 0 0
M  V30 7 C 5.7475 -0.3851 0 0
M  V30 8 C 4.4137 0.3851 0 0
M  V30 9 C 5.7475 -1.9251 0 0
M  V30 10 C 3.08 -0.3851 0 0
M  V30 11 C 4.4137 -2.6951 0 0
M  V30 12 C 3.08 -1.9251 0 0
M  V30 END ATOM
M  V30 BEGIN BOND
M  V30 1 1 1 3
M  V30 2 1 1 5
M  V30 3 1 2 3
M  V30 4 1 2 6
M  V30 5 1 3 7
M  V30 6 1 4 5
M  V30 7 1 4 6
M  V30 8 2 7 8
M  V30 9 1 7 9
M  V30 10 1 8 10
M  V30 11 2 9 11
M  V30 12 2 10 12
M  V30 13 1 11 12
M  V30 END BOND
M  V30 END CTAB
M  END

> <INPUT>
C10H14N2

> <FOUND_BY>
MS Ready Formula

> <DTXCID_INDIVIDUAL_COMPONENT>
DTXCID70521535

> <FORMULA_INDIVIDUAL_COMPONENT>
C10H14N2

> <SMILES_INDIVIDUAL_COMPONENT>
C1CNC(NC1)C1=CC=CC=C1

> <MAPPED_DTXSID>
DTXSID50570763

> <PREFERRED_NAME_DTXSID>
2-Phenylhexahydropyrimidine

> <CASRN_DTXSID>
183659-10-1

> <FORMULA_MAPPED_DTXSID>
C10H14N2

> <SMILES_MAPPED_DTXSID>
C1CNC(NC1)C1=CC=CC=C1

> <MS_READY_SMILES>
C1CNC(NC1)C1=CC=CC=C1

> <INCHI_STRING_DTXCID>
InChI=1S/C10H14N2/c1-2-5-9(6-3-1)10-11-7-4-8-12-10/h1-3,5-6,10-12H,4,7-8H2

> <INCHIKEY_DTXCID>
OYJVCTIHNXAJQA-UHFFFAOYSA-N

> <MONOISOTOPIC_MASS_DTXCID>
162.115698459

> <EXPOCAST_MEDIAN_EXPOSURE_PREDICTION_MG/KG-BW/DAY>
-

> <EXPOCAST>
0

> <NHANES>
0

> <DATA_SOURCES>
1

> <TOXVAL_DATA>
0

> <TOXCAST_PERCENT_ACTIVE>
-

> <TOXCAST_NUMBER_OF_ASSAYS/TOTAL>
-

> <NUMBER_OF_PUBMED_ARTICLES>
-

> <PUBCHEM_DATA_SOURCES>
6

> <CPDAT_COUNT>
-

> <ATMOSPHERIC_HYDROXYLATION_RATE_(AOH)_CM3/MOLECULE*SEC_OPERA_PRED>
1.8222e-11

> <BIOCONCENTRATION_FACTOR_OPERA_PRED>
6.97551

> <BIODEGRADATION_HALF_LIFE_DAYS_DAYS_OPERA_PRED>
3.66339

> <BOILING_POINT_DEGC_OPERA_PRED>
264.063

> <HENRYS_LAW_ATM-M3/MOLE_OPERA_PRED>
3.62023e-08

> <OPERA_KM_DAYS_OPERA_PRED>
0.159478

> <OCTANOL_AIR_PARTITION_COEFF_LOGKOA_OPERA_PRED>
7.8392

> <SOIL_ADSORPTION_COEFFICIENT_KOC_L/KG_OPERA_PRED>
129.65

> <OCTANOL_WATER_PARTITION_LOGP_OPERA_PRED>
1.0811

> <MELTING_POINT_DEGC_OPERA_PRED>
144.497

> <VAPOR_PRESSURE_MMHG_OPERA_PRED>
0.00827514

> <WATER_SOLUBILITY_MOL/L_OPERA_PRED>
0.0555817

> <TEST_BCF_TEST_PRED>
4.57088

> <BOILING_POINT_DEGC_TEST_PRED>
265.617

> <DENSITY_G/CM^3_TEST_PRED>
1.019

> <FLASH_POINT_DEGC_TEST_PRED>
113.141

> <MELTING_POINT_DEGC_TEST_PRED>
60.16

> <SURFACE_TENSION_DYN/CM_TEST_PRED>
36.774

> <THERMAL_CONDUCTIVITY_MW/(M*K)_TEST_PRED>
169.611

> <VISCOSITY_CP_CP_TEST_PRED>
12.9122

> <VAPOR_PRESSURE_MMHG_TEST_PRED>
0.000472063

> <WATER_SOLUBILITY_MOL/L_TEST_PRED>
0.139637

> <AEGLVALUES>
0

> <ALGALTOX>
0

> <ARCHEMICALS>
0

> <ATSDRLST>
0

> <BISPHENOLS>
0

> <OEHHA>
0

> <CERAPP>
0

> <FUNNAMES>
0

> <KWRSJERPS>
0

> <EPACONS>
0

> <IRIS>
0

> <EPAHFR>
0

> <EUCOSMETICS>
0

> <FRENCHLIST>
0

> <HEROMAP>
0

> <ITNANTIBIOTIC>
0

> <KEMIMARKET>
0

> <MASSBANKREF>
0

> <MASSBANKEUSP>
0

> <NEMILIST>
0

> <NATADB>
0

> <NIOSHIDLH>
0

> <NIOSHICSC>
0

> <NIOSHNPG>
0

> <NIOSHSKIN>
0

> <NORMANCT15>
0

> <SFISHFLUORO>
0

> <NORMANPRI>
0

> <NORMANEWS>
0

> <PFASTRIER>
0

> <SWISSPHARMA>
0

> <PPRTVWEB>
0

> <STOCKHOLM>
0

> <STOFFIDENT>
0

> <SCDM>
0

> <EAWAGSURF>
0

> <SWISSPEST>
0

> <TOX21SL>
0

> <TOXCAST>
0

> <TOXCAST_E1K>
0

> <TOXCAST_PH1V2>
0

> <TOXCAST_PH2>
0

> <TOXCAST_PH3>
0

> <TOXCAST_PHASEI>
0

> <TOXCAST_PHASEII>
0

> <TOXCAST_PHASEIII>
0

> <TRIRELEASE>
0

> <TSCASURF>
0

> <UJIBADE>
0

> <ATHENSSUS>
0

> <UATHTARGETS>
0

$$$$
523910
  Mrv1611109301618192D          

  0  0  0     0  0            999 V3000
M  V30 BEGIN CTAB
M  V30 COUNTS 12 13 0 0 0
M  V30 BEGIN ATOM
M  V30 1 N -1.3637 1.8288 0 0
M  V30 2 C -1.3637 0.2888 0 0
M  V30 3 C -0.03 -0.4812 0 0
M  V30 4 C 1.3037 0.2888 0 0
M  V30 5 C 2.6373 -0.4812 0 0
M  V30 6 C 2.6373 -2.0212 0 0
M  V30 7 C 1.3037 -2.7912 0 0
M  V30 8 N 1.3037 -4.3311 0 0
M  V30 9 C -0.03 -2.0212 0 0
M  V30 10 C -1.3637 -2.7912 0 0
M  V30 11 C -2.6974 -2.0212 0 0
M  V30 12 C -2.6974 -0.4812 0 0
M  V30 END ATOM
M  V30 BEGIN BOND
M  V30 1 1 1 2
M  V30 2 1 2 3
M  V30 3 2 3 4
M  V30 4 1 4 5
M  V30 5 2 5 6
M  V30 6 1 6 7
M  V30 7 1 7 8
M  V30 8 2 7 9
M  V30 9 1 9 3
M  V30 10 1 9 10
M  V30 11 1 10 11
M  V30 12 1 11 12
M  V30 13 1 12 2
M  V30 END BOND
M  V30 END CTAB
M  END

> <INPUT>
C10H14N2

> <FOUND_BY>
MS Ready Formula

> <DTXCID_INDIVIDUAL_COMPONENT>
DTXCID30947030

> <FORMULA_INDIVIDUAL_COMPONENT>
C10H14N2

> <SMILES_INDIVIDUAL_COMPONENT>
NC1CCCC2=C(N)C=CC=C12

> <MAPPED_DTXSID>
DTXSID50573138

> <PREFERRED_NAME_DTXSID>
1,2,3,4-Tetrahydronaphthalene-1,5-diamine

> <CASRN_DTXSID>
20351-50-2

> <FORMULA_MAPPED_DTXSID>
C10H14N2

> <SMILES_MAPPED_DTXSID>
NC1CCCC2=C1C=CC=C2N

> <MS_READY_SMILES>
NC1CCCC2=C(N)C=CC=C12

> <INCHI_STRING_DTXCID>
InChI=1S/C10H14N2/c11-9-5-1-3-7-8(9)4-2-6-10(7)12/h1,3,5,10H,2,4,6,11-12H2

> <INCHIKEY_DTXCID>
NRFAHLRZAHGETL-UHFFFAOYSA-N

> <MONOISOTOPIC_MASS_DTXCID>
162.115698459

> <EXPOCAST_MEDIAN_EXPOSURE_PREDICTION_MG/KG-BW/DAY>
-

> <EXPOCAST>
0

> <NHANES>
0

> <DATA_SOURCES>
1

> <TOXVAL_DATA>
0

> <TOXCAST_PERCENT_ACTIVE>
-

> <TOXCAST_NUMBER_OF_ASSAYS/TOTAL>
-

> <NUMBER_OF_PUBMED_ARTICLES>
-

> <PUBCHEM_DATA_SOURCES>
9

> <CPDAT_COUNT>
-

> <ATMOSPHERIC_HYDROXYLATION_RATE_(AOH)_CM3/MOLECULE*SEC_OPERA_PRED>
2.77865e-11

> <BIOCONCENTRATION_FACTOR_OPERA_PRED>
11.3826

> <BIODEGRADATION_HALF_LIFE_DAYS_DAYS_OPERA_PRED>
4.14697

> <BOILING_POINT_DEGC_OPERA_PRED>
267.24

> <HENRYS_LAW_ATM-M3/MOLE_OPERA_PRED>
6.62574e-08

> <OPERA_KM_DAYS_OPERA_PRED>
0.179624

> <OCTANOL_AIR_PARTITION_COEFF_LOGKOA_OPERA_PRED>
8.07088

> <SOIL_ADSORPTION_COEFFICIENT_KOC_L/KG_OPERA_PRED>
108.945

> <OCTANOL_WATER_PARTITION_LOGP_OPERA_PRED>
0.812291

> <MELTING_POINT_DEGC_OPERA_PRED>
134.038

> <VAPOR_PRESSURE_MMHG_OPERA_PRED>
0.000178629

> <WATER_SOLUBILITY_MOL/L_OPERA_PRED>
0.0330048

> <TEST_BCF_TEST_PRED>
6.13762

> <BOILING_POINT_DEGC_TEST_PRED>
282.447

> <DENSITY_G/CM^3_TEST_PRED>
1.216

> <FLASH_POINT_DEGC_TEST_PRED>
173.537

> <MELTING_POINT_DEGC_TEST_PRED>
117.295

> <SURFACE_TENSION_DYN/CM_TEST_PRED>
-

> <THERMAL_CONDUCTIVITY_MW/(M*K)_TEST_PRED>
-

> <VISCOSITY_CP_CP_TEST_PRED>
14.7571

> <VAPOR_PRESSURE_MMHG_TEST_PRED>
5.52077e-06

> <WATER_SOLUBILITY_MOL/L_TEST_PRED>
0.0118032

> <AEGLVALUES>
0

> <ALGALTOX>
0

> <ARCHEMICALS>
0

> <ATSDRLST>
0

> <BISPHENOLS>
0

> <OEHHA>
0

> <CERAPP>
0

> <FUNNAMES>
0

> <KWRSJERPS>
0

> <EPACONS>
0

> <IRIS>
0

> <EPAHFR>
0

> <EUCOSMETICS>
0

> <FRENCHLIST>
0

> <HEROMAP>
0

> <ITNANTIBIOTIC>
0

> <KEMIMARKET>
0

> <MASSBANKREF>
0

> <MASSBANKEUSP>
0

> <NEMILIST>
0

> <NATADB>
0

> <NIOSHIDLH>
0

> <NIOSHICSC>
0

> <NIOSHNPG>
0

> <NIOSHSKIN>
0

> <NORMANCT15>
0

> <SFISHFLUORO>
0

> <NORMANPRI>
0

> <NORMANEWS>
0

> <PFASTRIER>
0

> <SWISSPHARMA>
0

> <PPRTVWEB>
0

> <STOCKHOLM>
0

> <STOFFIDENT>
0

> <SCDM>
0

> <EAWAGSURF>
0

> <SWISSPEST>
0

> <TOX21SL>
0

> <TOXCAST>
0

> <TOXCAST_E1K>
0

> <TOXCAST_PH1V2>
0

> <TOXCAST_PH2>
0

> <TOXCAST_PH3>
0

> <TOXCAST_PHASEI>
0

> <TOXCAST_PHASEII>
0

> <TOXCAST_PHASEIII>
0

> <TRIRELEASE>
0

> <TSCASURF>
0

> <UJIBADE>
0

> <ATHENSSUS>
0

> <UATHTARGETS>
0

$$$$
527304
  Mrv1611109301618252D          

  0  0  0     0  0            999 V3000
M  V30 BEGIN CTAB
M  V30 COUNTS 12 13 0 0 0
M  V30 BEGIN ATOM
M  V30 1 N -3.6117 0.9129 0 0
M  V30 2 C -2.278 0.1429 0 0
M  V30 3 C -0.9443 0.9129 0 0
M  V30 4 C 0.3894 0.1429 0 0
M  V30 5 C 1.723 0.9129 0 0
M  V30 6 C 3.0567 0.1429 0 0
M  V30 7 C 3.0567 -1.3971 0 0
M  V30 8 C 1.723 -2.1671 0 0
M  V30 9 C 0.3894 -1.3971 0 0
M  V30 10 C -0.9443 -2.1671 0 0
M  V30 11 C -2.278 -1.3971 0 0
M  V30 12 N -4.9453 0.1429 0 0
M  V30 END ATOM
M  V30 BEGIN BOND
M  V30 1 1 1 2
M  V30 2 1 2 3
M  V30 3 1 3 4
M  V30 4 2 4 5
M  V30 5 1 5 6
M  V30 6 2 6 7
M  V30 7 1 7 8
M  V30 8 2 8 9
M  V30 9 1 9 4
M  V30 10 1 9 10
M  V30 11 1 10 11
M  V30 12 1 11 2
M  V30 13 1 1 12
M  V30 END BOND
M  V30 END CTAB
M  END

> <INPUT>
C10H14N2

> <FOUND_BY>
MS Ready Formula

> <DTXCID_INDIVIDUAL_COMPONENT>
DTXCID00947921

> <FORMULA_INDIVIDUAL_COMPONENT>
C10H14N2

> <SMILES_INDIVIDUAL_COMPONENT>
NNC1CCC2=CC=CC=C2C1

> <MAPPED_DTXSID>
DTXSID00576533

> <PREFERRED_NAME_DTXSID>
(1,2,3,4-Tetrahydronaphthalen-2-yl)hydrazine

> <CASRN_DTXSID>
1743-07-3

> <FORMULA_MAPPED_DTXSID>
C10H14N2

> <SMILES_MAPPED_DTXSID>
NNC1CCC2=CC=CC=C2C1

> <MS_READY_SMILES>
NNC1CCC2=CC=CC=C2C1

> <INCHI_STRING_DTXCID>
InChI=1S/C10H14N2/c11-12-10-6-5-8-3-1-2-4-9(8)7-10/h1-4,10,12H,5-7,11H2

> <INCHIKEY_DTXCID>
DDYZUEUSICJQGM-UHFFFAOYSA-N

> <MONOISOTOPIC_MASS_DTXCID>
162.115698459

> <EXPOCAST_MEDIAN_EXPOSURE_PREDICTION_MG/KG-BW/DAY>
-

> <EXPOCAST>
0

> <NHANES>
0

> <DATA_SOURCES>
1

> <TOXVAL_DATA>
0

> <TOXCAST_PERCENT_ACTIVE>
-

> <TOXCAST_NUMBER_OF_ASSAYS/TOTAL>
-

> <NUMBER_OF_PUBMED_ARTICLES>
-

> <PUBCHEM_DATA_SOURCES>
16

> <CPDAT_COUNT>
-

> <ATMOSPHERIC_HYDROXYLATION_RATE_(AOH)_CM3/MOLECULE*SEC_OPERA_PRED>
2.12452e-11

> <BIOCONCENTRATION_FACTOR_OPERA_PRED>
6.91565

> <BIODEGRADATION_HALF_LIFE_DAYS_DAYS_OPERA_PRED>
6.21731

> <BOILING_POINT_DEGC_OPERA_PRED>
244.836

> <HENRYS_LAW_ATM-M3/MOLE_OPERA_PRED>
1.6012e-07

> <OPERA_KM_DAYS_OPERA_PRED>
0.411907

> <OCTANOL_AIR_PARTITION_COEFF_LOGKOA_OPERA_PRED>
7.71114

> <SOIL_ADSORPTION_COEFFICIENT_KOC_L/KG_OPERA_PRED>
156.821

> <OCTANOL_WATER_PARTITION_LOGP_OPERA_PRED>
0.993899

> <MELTING_POINT_DEGC_OPERA_PRED>
87.7432

> <VAPOR_PRESSURE_MMHG_OPERA_PRED>
0.00578994

> <WATER_SOLUBILITY_MOL/L_OPERA_PRED>
0.00673188

> <TEST_BCF_TEST_PRED>
-

> <BOILING_POINT_DEGC_TEST_PRED>
-

> <DENSITY_G/CM^3_TEST_PRED>
1.114

> <FLASH_POINT_DEGC_TEST_PRED>
168.838

> <MELTING_POINT_DEGC_TEST_PRED>
85.293

> <SURFACE_TENSION_DYN/CM_TEST_PRED>
-

> <THERMAL_CONDUCTIVITY_MW/(M*K)_TEST_PRED>
-

> <VISCOSITY_CP_CP_TEST_PRED>
-

> <VAPOR_PRESSURE_MMHG_TEST_PRED>
0.0125893

> <WATER_SOLUBILITY_MOL/L_TEST_PRED>
0.0342768

> <AEGLVALUES>
0

> <ALGALTOX>
0

> <ARCHEMICALS>
0

> <ATSDRLST>
0

> <BISPHENOLS>
0

> <OEHHA>
0

> <CERAPP>
0

> <FUNNAMES>
0

> <KWRSJERPS>
0

> <EPACONS>
0

> <IRIS>
0

> <EPAHFR>
0

> <EUCOSMETICS>
0

> <FRENCHLIST>
0

> <HEROMAP>
0

> <ITNANTIBIOTIC>
0

> <KEMIMARKET>
0

> <MASSBANKREF>
0

> <MASSBANKEUSP>
0

> <NEMILIST>
0

> <NATADB>
0

> <NIOSHIDLH>
0

> <NIOSHICSC>
0

> <NIOSHNPG>
0

> <NIOSHSKIN>
0

> <NORMANCT15>
0

> <SFISHFLUORO>
0

> <NORMANPRI>
0

> <NORMANEWS>
0

> <PFASTRIER>
0

> <SWISSPHARMA>
0

> <PPRTVWEB>
0

> <STOCKHOLM>
0

> <STOFFIDENT>
0

> <SCDM>
0

> <EAWAGSURF>
0

> <SWISSPEST>
0

> <TOX21SL>
0

> <TOXCAST>
0

> <TOXCAST_E1K>
0

> <TOXCAST_PH1V2>
0

> <TOXCAST_PH2>
0

> <TOXCAST_PH3>
0

> <TOXCAST_PHASEI>
0

> <TOXCAST_PHASEII>
0

> <TOXCAST_PHASEIII>
0

> <TRIRELEASE>
0

> <TSCASURF>
0

> <UJIBADE>
0

> <ATHENSSUS>
0

> <UATHTARGETS>
0

$$$$
527556
  Mrv1611109301618252D          

  0  0  0     0  0            999 V3000
M  V30 BEGIN CTAB
M  V30 COUNTS 12 13 0 0 0
M  V30 BEGIN ATOM
M  V30 1 N 1.2161 -0.8966 0 0
M  V30 2 C -0.1176 -1.6666 0 0
M  V30 3 C -1.4512 -0.8966 0 0
M  V30 4 C -1.4512 0.6434 0 0
M  V30 5 C -0.1176 1.4134 0 0
M  V30 6 C -0.1176 2.9534 0 0
M  V30 7 C -1.4512 3.7234 0 0
M  V30 8 N -1.4512 5.2634 0 0
M  V30 9 C -0.1176 6.0334 0 0
M  V30 10 C 1.2161 5.2634 0 0
M  V30 11 C 1.2161 3.7234 0 0
M  V30 12 C 1.2161 0.6434 0 0
M  V30 END ATOM
M  V30 BEGIN BOND
M  V30 1 1 1 2
M  V30 2 1 2 3
M  V30 3 1 3 4
M  V30 4 1 4 5
M  V30 5 1 5 6
M  V30 6 2 6 7
M  V30 7 1 7 8
M  V30 8 2 8 9
M  V30 9 1 9 10
M  V30 10 2 10 11
M  V30 11 1 11 6
M  V30 12 1 5 12
M  V30 13 1 12 1
M  V30 END BOND
M  V30 END CTAB
M  END

> <INPUT>
C10H14N2

> <FOUND_BY>
MS Ready Formula

> <DTXCID_INDIVIDUAL_COMPONENT>
DTXCID90948003

> <FORMULA_INDIVIDUAL_COMPONENT>
C10H14N2

> <SMILES_INDIVIDUAL_COMPONENT>
C1CNCC(C1)C1=CN=CC=C1

> <MAPPED_DTXSID>
DTXSID50576785

> <PREFERRED_NAME_DTXSID>
3-(Piperidin-3-yl)pyridine

> <CASRN_DTXSID>
31251-28-2

> <FORMULA_MAPPED_DTXSID>
C10H14N2

> <SMILES_MAPPED_DTXSID>
C1CNCC(C1)C1=CN=CC=C1

> <MS_READY_SMILES>
C1CNCC(C1)C1=CN=CC=C1

> <INCHI_STRING_DTXCID>
InChI=1S/C10H14N2/c1-3-9(7-11-5-1)10-4-2-6-12-8-10/h1,3,5,7,10,12H,2,4,6,8H2

> <INCHIKEY_DTXCID>
KLDGENGYOLDCCH-UHFFFAOYSA-N

> <MONOISOTOPIC_MASS_DTXCID>
162.115698459

> <EXPOCAST_MEDIAN_EXPOSURE_PREDICTION_MG/KG-BW/DAY>
-

> <EXPOCAST>
0

> <NHANES>
0

> <DATA_SOURCES>
1

> <TOXVAL_DATA>
0

> <TOXCAST_PERCENT_ACTIVE>
-

> <TOXCAST_NUMBER_OF_ASSAYS/TOTAL>
-

> <NUMBER_OF_PUBMED_ARTICLES>
-

> <PUBCHEM_DATA_SOURCES>
21

> <CPDAT_COUNT>
-

> <ATMOSPHERIC_HYDROXYLATION_RATE_(AOH)_CM3/MOLECULE*SEC_OPERA_PRED>
4.36824e-11

> <BIOCONCENTRATION_FACTOR_OPERA_PRED>
4.73974

> <BIODEGRADATION_HALF_LIFE_DAYS_DAYS_OPERA_PRED>
2.77467

> <BOILING_POINT_DEGC_OPERA_PRED>
281.089

> <HENRYS_LAW_ATM-M3/MOLE_OPERA_PRED>
2.84629e-07

> <OPERA_KM_DAYS_OPERA_PRED>
0.49975

> <OCTANOL_AIR_PARTITION_COEFF_LOGKOA_OPERA_PRED>
8.36352

> <SOIL_ADSORPTION_COEFFICIENT_KOC_L/KG_OPERA_PRED>
144.458

> <OCTANOL_WATER_PARTITION_LOGP_OPERA_PRED>
0.895853

> <MELTING_POINT_DEGC_OPERA_PRED>
57.2961

> <VAPOR_PRESSURE_MMHG_OPERA_PRED>
0.0116458

> <WATER_SOLUBILITY_MOL/L_OPERA_PRED>
1.15853

> <TEST_BCF_TEST_PRED>
10.3753

> <BOILING_POINT_DEGC_TEST_PRED>
267.071

> <DENSITY_G/CM^3_TEST_PRED>
1.035

> <FLASH_POINT_DEGC_TEST_PRED>
110.951

> <MELTING_POINT_DEGC_TEST_PRED>
38.487

> <SURFACE_TENSION_DYN/CM_TEST_PRED>
37.771

> <THERMAL_CONDUCTIVITY_MW/(M*K)_TEST_PRED>
148.563

> <VISCOSITY_CP_CP_TEST_PRED>
12.4451

> <VAPOR_PRESSURE_MMHG_TEST_PRED>
0.00380189

> <WATER_SOLUBILITY_MOL/L_TEST_PRED>
0.0794328

> <AEGLVALUES>
0

> <ALGALTOX>
0

> <ARCHEMICALS>
0

> <ATSDRLST>
0

> <BISPHENOLS>
0

> <OEHHA>
0

> <CERAPP>
0

> <FUNNAMES>
0

> <KWRSJERPS>
0

> <EPACONS>
0

> <IRIS>
0

> <EPAHFR>
0

> <EUCOSMETICS>
0

> <FRENCHLIST>
0

> <HEROMAP>
0

> <ITNANTIBIOTIC>
0

> <KEMIMARKET>
0

> <MASSBANKREF>
0

> <MASSBANKEUSP>
0

> <NEMILIST>
0

> <NATADB>
0

> <NIOSHIDLH>
0

> <NIOSHICSC>
0

> <NIOSHNPG>
0

> <NIOSHSKIN>
0

> <NORMANCT15>
0

> <SFISHFLUORO>
0

> <NORMANPRI>
0

> <NORMANEWS>
0

> <PFASTRIER>
0

> <SWISSPHARMA>
0

> <PPRTVWEB>
0

> <STOCKHOLM>
0

> <STOFFIDENT>
0

> <SCDM>
0

> <EAWAGSURF>
0

> <SWISSPEST>
0

> <TOX21SL>
0

> <TOXCAST>
0

> <TOXCAST_E1K>
0

> <TOXCAST_PH1V2>
0

> <TOXCAST_PH2>
0

> <TOXCAST_PH3>
0

> <TOXCAST_PHASEI>
0

> <TOXCAST_PHASEII>
0

> <TOXCAST_PHASEIII>
0

> <TRIRELEASE>
0

> <TSCASURF>
0

> <UJIBADE>
0

> <ATHENSSUS>
0

> <UATHTARGETS>
0

$$$$
529510
  Mrv1611109301618282D          

  0  0  0     0  0            999 V3000
M  V30 BEGIN CTAB
M  V30 COUNTS 12 13 0 0 0
M  V30 BEGIN ATOM
M  V30 1 N -0.4264 1.5122 0 0
M  V30 2 C -0.4264 -0.0278 0 0
M  V30 3 C 0.9073 -0.7978 0 0
M  V30 4 C 2.241 -0.0278 0 0
M  V30 5 C 3.5747 -0.7978 0 0
M  V30 6 C 3.5747 -2.3378 0 0
M  V30 7 C 2.241 -3.1078 0 0
M  V30 8 C 0.9073 -2.3378 0 0
M  V30 9 C -0.4264 -3.1078 0 0
M  V30 10 C -1.7601 -2.3378 0 0
M  V30 11 C -1.7601 -0.7978 0 0
M  V30 12 N -1.7601 2.2822 0 0
M  V30 END ATOM
M  V30 BEGIN BOND
M  V30 1 1 1 2
M  V30 2 1 2 3
M  V30 3 2 3 4
M  V30 4 1 4 5
M  V30 5 2 5 6
M  V30 6 1 6 7
M  V30 7 2 7 8
M  V30 8 1 8 3
M  V30 9 1 8 9
M  V30 10 1 9 10
M  V30 11 1 10 11
M  V30 12 1 11 2
M  V30 13 1 1 12
M  V30 END BOND
M  V30 END CTAB
M  END

> <INPUT>
C10H14N2

> <FOUND_BY>
MS Ready Formula

> <DTXCID_INDIVIDUAL_COMPONENT>
DTXCID80948451

> <FORMULA_INDIVIDUAL_COMPONENT>
C10H14N2

> <SMILES_INDIVIDUAL_COMPONENT>
NNC1CCCC2=CC=CC=C12

> <MAPPED_DTXSID>
DTXSID90578743

> <PREFERRED_NAME_DTXSID>
(1,2,3,4-Tetrahydronaphthalen-1-yl)hydrazine

> <CASRN_DTXSID>
98074-64-7

> <FORMULA_MAPPED_DTXSID>
C10H14N2

> <SMILES_MAPPED_DTXSID>
NNC1CCCC2=CC=CC=C12

> <MS_READY_SMILES>
NNC1CCCC2=CC=CC=C12

> <INCHI_STRING_DTXCID>
InChI=1S/C10H14N2/c11-12-10-7-3-5-8-4-1-2-6-9(8)10/h1-2,4,6,10,12H,3,5,7,11H2

> <INCHIKEY_DTXCID>
BEFSPYNDXHSFPF-UHFFFAOYSA-N

> <MONOISOTOPIC_MASS_DTXCID>
162.115698459

> <EXPOCAST_MEDIAN_EXPOSURE_PREDICTION_MG/KG-BW/DAY>
-

> <EXPOCAST>
0

> <NHANES>
0

> <DATA_SOURCES>
1

> <TOXVAL_DATA>
0

> <TOXCAST_PERCENT_ACTIVE>
-

> <TOXCAST_NUMBER_OF_ASSAYS/TOTAL>
-

> <NUMBER_OF_PUBMED_ARTICLES>
-

> <PUBCHEM_DATA_SOURCES>
14

> <CPDAT_COUNT>
-

> <ATMOSPHERIC_HYDROXYLATION_RATE_(AOH)_CM3/MOLECULE*SEC_OPERA_PRED>
2.12263e-11

> <BIOCONCENTRATION_FACTOR_OPERA_PRED>
6.91044

> <BIODEGRADATION_HALF_LIFE_DAYS_DAYS_OPERA_PRED>
4.23862

> <BOILING_POINT_DEGC_OPERA_PRED>
257.133

> <HENRYS_LAW_ATM-M3/MOLE_OPERA_PRED>
1.57225e-07

> <OPERA_KM_DAYS_OPERA_PRED>
0.168101

> <OCTANOL_AIR_PARTITION_COEFF_LOGKOA_OPERA_PRED>
7.71114

> <SOIL_ADSORPTION_COEFFICIENT_KOC_L/KG_OPERA_PRED>
127.196

> <OCTANOL_WATER_PARTITION_LOGP_OPERA_PRED>
1.00128

> <MELTING_POINT_DEGC_OPERA_PRED>
87.7399

> <VAPOR_PRESSURE_MMHG_OPERA_PRED>
0.00580419

> <WATER_SOLUBILITY_MOL/L_OPERA_PRED>
0.00670288

> <TEST_BCF_TEST_PRED>
-

> <BOILING_POINT_DEGC_TEST_PRED>
-

> <DENSITY_G/CM^3_TEST_PRED>
1.166

> <FLASH_POINT_DEGC_TEST_PRED>
147.833

> <MELTING_POINT_DEGC_TEST_PRED>
104.261

> <SURFACE_TENSION_DYN/CM_TEST_PRED>
-

> <THERMAL_CONDUCTIVITY_MW/(M*K)_TEST_PRED>
-

> <VISCOSITY_CP_CP_TEST_PRED>
-

> <VAPOR_PRESSURE_MMHG_TEST_PRED>
0.00986279

> <WATER_SOLUBILITY_MOL/L_TEST_PRED>
0.0570164

> <AEGLVALUES>
0

> <ALGALTOX>
0

> <ARCHEMICALS>
0

> <ATSDRLST>
0

> <BISPHENOLS>
0

> <OEHHA>
0

> <CERAPP>
0

> <FUNNAMES>
0

> <KWRSJERPS>
0

> <EPACONS>
0

> <IRIS>
0

> <EPAHFR>
0

> <EUCOSMETICS>
0

> <FRENCHLIST>
0

> <HEROMAP>
0

> <ITNANTIBIOTIC>
0

> <KEMIMARKET>
0

> <MASSBANKREF>
0

> <MASSBANKEUSP>
0

> <NEMILIST>
0

> <NATADB>
0

> <NIOSHIDLH>
0

> <NIOSHICSC>
0

> <NIOSHNPG>
0

> <NIOSHSKIN>
0

> <NORMANCT15>
0

> <SFISHFLUORO>
0

> <NORMANPRI>
0

> <NORMANEWS>
0

> <PFASTRIER>
0

> <SWISSPHARMA>
0

> <PPRTVWEB>
0

> <STOCKHOLM>
0

> <STOFFIDENT>
0

> <SCDM>
0

> <EAWAGSURF>
0

> <SWISSPEST>
0

> <TOX21SL>
0

> <TOXCAST>
0

> <TOXCAST_E1K>
0

> <TOXCAST_PH1V2>
0

> <TOXCAST_PH2>
0

> <TOXCAST_PH3>
0

> <TOXCAST_PHASEI>
0

> <TOXCAST_PHASEII>
0

> <TOXCAST_PHASEIII>
0

> <TRIRELEASE>
0

> <TSCASURF>
0

> <UJIBADE>
0

> <ATHENSSUS>
0

> <UATHTARGETS>
0

$$$$

  Mrv1533009301519002D          

  0  0  0     0  0            999 V3000
M  V30 BEGIN CTAB
M  V30 COUNTS 12 13 0 0 0
M  V30 BEGIN ATOM
M  V30 1 N 4.4137 -3.3727 0 0
M  V30 2 N 3.08 2.0175 0 0
M  V30 3 C 4.4137 -0.2927 0 0
M  V30 4 C 3.08 -1.0627 0 0
M  V30 5 C 5.7475 -1.0627 0 0
M  V30 6 C 3.08 -2.6027 0 0
M  V30 7 C 5.7475 -2.6027 0 0
M  V30 8 C 4.4137 1.2475 0 0
M  V30 9 C 5.7475 2.0175 0 0
M  V30 10 C 5.7475 3.5575 0 0
M  V30 11 C 3.08 3.5575 0 0
M  V30 12 C 4.4137 4.3275 0 0
M  V30 END ATOM
M  V30 BEGIN BOND
M  V30 1 1 1 6
M  V30 2 1 1 7
M  V30 3 1 2 8
M  V30 4 2 2 11
M  V30 5 1 3 4
M  V30 6 1 3 5
M  V30 7 1 3 8
M  V30 8 1 4 6
M  V30 9 1 5 7
M  V30 10 2 8 9
M  V30 11 1 9 10
M  V30 12 2 10 12
M  V30 13 1 11 12
M  V30 END BOND
M  V30 END CTAB
M  END

> <INPUT>
C10H14N2

> <FOUND_BY>
MS Ready Formula

> <DTXCID_INDIVIDUAL_COMPONENT>
DTXCID10389651

> <FORMULA_INDIVIDUAL_COMPONENT>
C10H14N2

> <SMILES_INDIVIDUAL_COMPONENT>
C1CC(CCN1)C1=CC=CC=N1

> <MAPPED_DTXSID>
DTXSID40582436

> <PREFERRED_NAME_DTXSID>
2-(Piperidin-4-yl)pyridine--hydrogen chloride (1/2)

> <CASRN_DTXSID>
143924-45-2

> <FORMULA_MAPPED_DTXSID>
C10H16Cl2N2

> <SMILES_MAPPED_DTXSID>
Cl.Cl.C1CC(CCN1)C1=CC=CC=N1

> <MS_READY_SMILES>
C1CC(CCN1)C1=CC=CC=N1

> <INCHI_STRING_DTXCID>
InChI=1S/C10H14N2/c1-2-6-12-10(3-1)9-4-7-11-8-5-9/h1-3,6,9,11H,4-5,7-8H2

> <INCHIKEY_DTXCID>
KVNQCSIGNRPHHM-UHFFFAOYSA-N

> <MONOISOTOPIC_MASS_DTXCID>
162.115698459

> <EXPOCAST_MEDIAN_EXPOSURE_PREDICTION_MG/KG-BW/DAY>
-

> <EXPOCAST>
0

> <NHANES>
0

> <DATA_SOURCES>
1

> <TOXVAL_DATA>
0

> <TOXCAST_PERCENT_ACTIVE>
-

> <TOXCAST_NUMBER_OF_ASSAYS/TOTAL>
-

> <NUMBER_OF_PUBMED_ARTICLES>
-

> <PUBCHEM_DATA_SOURCES>
30

> <CPDAT_COUNT>
-

> <ATMOSPHERIC_HYDROXYLATION_RATE_(AOH)_CM3/MOLECULE*SEC_OPERA_PRED>
2.11832e-11

> <BIOCONCENTRATION_FACTOR_OPERA_PRED>
12.5782

> <BIODEGRADATION_HALF_LIFE_DAYS_DAYS_OPERA_PRED>
2.77436

> <BOILING_POINT_DEGC_OPERA_PRED>
282.29

> <HENRYS_LAW_ATM-M3/MOLE_OPERA_PRED>
2.83931e-07

> <OPERA_KM_DAYS_OPERA_PRED>
0.222491

> <OCTANOL_AIR_PARTITION_COEFF_LOGKOA_OPERA_PRED>
8.36352

> <SOIL_ADSORPTION_COEFFICIENT_KOC_L/KG_OPERA_PRED>
123.202

> <OCTANOL_WATER_PARTITION_LOGP_OPERA_PRED>
0.897407

> <MELTING_POINT_DEGC_OPERA_PRED>
81.3661

> <VAPOR_PRESSURE_MMHG_OPERA_PRED>
0.0115445

> <WATER_SOLUBILITY_MOL/L_OPERA_PRED>
0.414985

> <TEST_BCF_TEST_PRED>
12.0226

> <BOILING_POINT_DEGC_TEST_PRED>
257.718

> <DENSITY_G/CM^3_TEST_PRED>
1.034

> <FLASH_POINT_DEGC_TEST_PRED>
111.995

> <MELTING_POINT_DEGC_TEST_PRED>
62.774

> <SURFACE_TENSION_DYN/CM_TEST_PRED>
37.708

> <THERMAL_CONDUCTIVITY_MW/(M*K)_TEST_PRED>
148.882

> <VISCOSITY_CP_CP_TEST_PRED>
12.9122

> <VAPOR_PRESSURE_MMHG_TEST_PRED>
0.00462381

> <WATER_SOLUBILITY_MOL/L_TEST_PRED>
0.0395367

> <AEGLVALUES>
0

> <ALGALTOX>
0

> <ARCHEMICALS>
0

> <ATSDRLST>
0

> <BISPHENOLS>
0

> <OEHHA>
0

> <CERAPP>
0

> <FUNNAMES>
0

> <KWRSJERPS>
0

> <EPACONS>
0

> <IRIS>
0

> <EPAHFR>
0

> <EUCOSMETICS>
0

> <FRENCHLIST>
0

> <HEROMAP>
0

> <ITNANTIBIOTIC>
0

> <KEMIMARKET>
0

> <MASSBANKREF>
0

> <MASSBANKEUSP>
0

> <NEMILIST>
0

> <NATADB>
0

> <NIOSHIDLH>
0

> <NIOSHICSC>
0

> <NIOSHNPG>
0

> <NIOSHSKIN>
0

> <NORMANCT15>
0

> <SFISHFLUORO>
0

> <NORMANPRI>
0

> <NORMANEWS>
0

> <PFASTRIER>
0

> <SWISSPHARMA>
0

> <PPRTVWEB>
0

> <STOCKHOLM>
0

> <STOFFIDENT>
0

> <SCDM>
0

> <EAWAGSURF>
0

> <SWISSPEST>
0

> <TOX21SL>
0

> <TOXCAST>
0

> <TOXCAST_E1K>
0

> <TOXCAST_PH1V2>
0

> <TOXCAST_PH2>
0

> <TOXCAST_PH3>
0

> <TOXCAST_PHASEI>
0

> <TOXCAST_PHASEII>
0

> <TOXCAST_PHASEIII>
0

> <TRIRELEASE>
0

> <TSCASURF>
0

> <UJIBADE>
0

> <ATHENSSUS>
0

> <UATHTARGETS>
0

$$$$

  Mrv1533009301519492D          

  0  0  0     0  0            999 V3000
M  V30 BEGIN CTAB
M  V30 COUNTS 12 11 0 0 0
M  V30 BEGIN ATOM
M  V30 1 N 3.08 2.31 0 0
M  V30 2 N 5.7475 -2.31 0 0
M  V30 3 C 11.0824 0.77 0 0
M  V30 4 C 12.4161 1.54 0 0
M  V30 5 C 9.7485 1.54 0 0
M  V30 6 C 13.7497 0.77 0 0
M  V30 7 C 8.4149 0.77 0 0
M  V30 8 C 15.0834 1.54 0 0
M  V30 9 C 7.0812 1.54 0 0
M  V30 10 C 5.7475 0.77 0 0
M  V30 11 C 4.4137 1.54 0 0
M  V30 12 C 5.7475 -0.77 0 0
M  V30 END ATOM
M  V30 BEGIN BOND
M  V30 1 3 1 11
M  V30 2 3 2 12
M  V30 3 1 3 4
M  V30 4 1 3 5
M  V30 5 1 4 6
M  V30 6 1 5 7
M  V30 7 1 6 8
M  V30 8 1 7 9
M  V30 9 2 9 10
M  V30 10 1 10 11
M  V30 11 1 10 12
M  V30 END BOND
M  V30 END CTAB
M  END

> <INPUT>
C10H14N2

> <FOUND_BY>
MS Ready Formula

> <DTXCID_INDIVIDUAL_COMPONENT>
DTXCID70533239

> <FORMULA_INDIVIDUAL_COMPONENT>
C10H14N2

> <SMILES_INDIVIDUAL_COMPONENT>
CCCCCCC=C(C#N)C#N

> <MAPPED_DTXSID>
DTXSID20582474

> <PREFERRED_NAME_DTXSID>
Heptylidenepropanedinitrile

> <CASRN_DTXSID>
695165-26-5

> <FORMULA_MAPPED_DTXSID>
C10H14N2

> <SMILES_MAPPED_DTXSID>
CCCCCCC=C(C#N)C#N

> <MS_READY_SMILES>
CCCCCCC=C(C#N)C#N

> <INCHI_STRING_DTXCID>
InChI=1S/C10H14N2/c1-2-3-4-5-6-7-10(8-11)9-12/h7H,2-6H2,1H3

> <INCHIKEY_DTXCID>
MZTUQCOHFNZSLC-UHFFFAOYSA-N

> <MONOISOTOPIC_MASS_DTXCID>
162.115698459

> <EXPOCAST_MEDIAN_EXPOSURE_PREDICTION_MG/KG-BW/DAY>
-

> <EXPOCAST>
0

> <NHANES>
0

> <DATA_SOURCES>
1

> <TOXVAL_DATA>
0

> <TOXCAST_PERCENT_ACTIVE>
-

> <TOXCAST_NUMBER_OF_ASSAYS/TOTAL>
-

> <NUMBER_OF_PUBMED_ARTICLES>
-

> <PUBCHEM_DATA_SOURCES>
10

> <CPDAT_COUNT>
-

> <ATMOSPHERIC_HYDROXYLATION_RATE_(AOH)_CM3/MOLECULE*SEC_OPERA_PRED>
1.25207e-11

> <BIOCONCENTRATION_FACTOR_OPERA_PRED>
39.9188

> <BIODEGRADATION_HALF_LIFE_DAYS_DAYS_OPERA_PRED>
4.96328

> <BOILING_POINT_DEGC_OPERA_PRED>
285.162

> <HENRYS_LAW_ATM-M3/MOLE_OPERA_PRED>
2.72428e-08

> <OPERA_KM_DAYS_OPERA_PRED>
1.28263

> <OCTANOL_AIR_PARTITION_COEFF_LOGKOA_OPERA_PRED>
5.81123

> <SOIL_ADSORPTION_COEFFICIENT_KOC_L/KG_OPERA_PRED>
228.248

> <OCTANOL_WATER_PARTITION_LOGP_OPERA_PRED>
1.41555

> <MELTING_POINT_DEGC_OPERA_PRED>
15.8658

> <VAPOR_PRESSURE_MMHG_OPERA_PRED>
0.00720408

> <WATER_SOLUBILITY_MOL/L_OPERA_PRED>
0.00172762

> <TEST_BCF_TEST_PRED>
-

> <BOILING_POINT_DEGC_TEST_PRED>
244.93

> <DENSITY_G/CM^3_TEST_PRED>
1.037

> <FLASH_POINT_DEGC_TEST_PRED>
137.158

> <MELTING_POINT_DEGC_TEST_PRED>
101.353

> <SURFACE_TENSION_DYN/CM_TEST_PRED>
33.212

> <THERMAL_CONDUCTIVITY_MW/(M*K)_TEST_PRED>
-

> <VISCOSITY_CP_CP_TEST_PRED>
-

> <VAPOR_PRESSURE_MMHG_TEST_PRED>
-

> <WATER_SOLUBILITY_MOL/L_TEST_PRED>
0.00272898

> <AEGLVALUES>
0

> <ALGALTOX>
0

> <ARCHEMICALS>
0

> <ATSDRLST>
0

> <BISPHENOLS>
0

> <OEHHA>
0

> <CERAPP>
0

> <FUNNAMES>
0

> <KWRSJERPS>
0

> <EPACONS>
0

> <IRIS>
0

> <EPAHFR>
0

> <EUCOSMETICS>
0

> <FRENCHLIST>
0

> <HEROMAP>
0

> <ITNANTIBIOTIC>
0

> <KEMIMARKET>
0

> <MASSBANKREF>
0

> <MASSBANKEUSP>
0

> <NEMILIST>
0

> <NATADB>
0

> <NIOSHIDLH>
0

> <NIOSHICSC>
0

> <NIOSHNPG>
0

> <NIOSHSKIN>
0

> <NORMANCT15>
0

> <SFISHFLUORO>
0

> <NORMANPRI>
0

> <NORMANEWS>
0

> <PFASTRIER>
0

> <SWISSPHARMA>
0

> <PPRTVWEB>
0

> <STOCKHOLM>
0

> <STOFFIDENT>
0

> <SCDM>
0

> <EAWAGSURF>
0

> <SWISSPEST>
0

> <TOX21SL>
0

> <TOXCAST>
0

> <TOXCAST_E1K>
0

> <TOXCAST_PH1V2>
0

> <TOXCAST_PH2>
0

> <TOXCAST_PH3>
0

> <TOXCAST_PHASEI>
0

> <TOXCAST_PHASEII>
0

> <TOXCAST_PHASEIII>
0

> <TRIRELEASE>
0

> <TSCASURF>
0

> <UJIBADE>
0

> <ATHENSSUS>
0

> <UATHTARGETS>
0

$$$$
540761
  Mrv1611109291613502D          

  0  0  0     0  0            999 V3000
M  V30 BEGIN CTAB
M  V30 COUNTS 12 13 0 0 0
M  V30 BEGIN ATOM
M  V30 1 N 3.1658 -0.3464 0 0
M  V30 2 C 3.1658 -1.8864 0 0
M  V30 3 C 1.8321 -2.6564 0 0
M  V30 4 N 0.4984 -1.8864 0 0
M  V30 5 C 0.4984 -0.3464 0 0
M  V30 6 C 1.8321 0.4236 0 0
M  V30 7 C 1.8321 1.9636 0 0
M  V30 8 C 0.4984 2.7336 0 0
M  V30 9 C 0.4984 4.2735 0 0
M  V30 10 C 1.8321 5.0435 0 0
M  V30 11 C 3.1658 4.2735 0 0
M  V30 12 C 3.1658 2.7336 0 0
M  V30 END ATOM
M  V30 BEGIN BOND
M  V30 1 1 1 2
M  V30 2 1 2 3
M  V30 3 1 3 4
M  V30 4 1 4 5
M  V30 5 1 5 6
M  V30 6 1 6 1
M  V30 7 1 6 7
M  V30 8 2 7 8
M  V30 9 1 8 9
M  V30 10 2 9 10
M  V30 11 1 10 11
M  V30 12 2 11 12
M  V30 13 1 12 7
M  V30 END BOND
M  V30 END CTAB
M  END

> <INPUT>
C10H14N2

> <FOUND_BY>
MS Ready Formula

> <DTXCID_INDIVIDUAL_COMPONENT>
DTXCID80862360

> <FORMULA_INDIVIDUAL_COMPONENT>
C10H14N2

> <SMILES_INDIVIDUAL_COMPONENT>
C1CNC(CN1)C1=CC=CC=C1

> <MAPPED_DTXSID>
DTXSID10589997

> <PREFERRED_NAME_DTXSID>
2-Phenylpiperazine--hydrogen chloride (1/2)

> <CASRN_DTXSID>
872139-22-5

> <FORMULA_MAPPED_DTXSID>
C10H16Cl2N2

> <SMILES_MAPPED_DTXSID>
Cl.Cl.C1CNC(CN1)C1=CC=CC=C1

> <MS_READY_SMILES>
C1CNC(CN1)C1=CC=CC=C1

> <INCHI_STRING_DTXCID>
InChI=1S/C10H14N2/c1-2-4-9(5-3-1)10-8-11-6-7-12-10/h1-5,10-12H,6-8H2

> <INCHIKEY_DTXCID>
RIMRLBGNCLMSNH-UHFFFAOYSA-N

> <MONOISOTOPIC_MASS_DTXCID>
162.115698459

> <EXPOCAST_MEDIAN_EXPOSURE_PREDICTION_MG/KG-BW/DAY>
-

> <EXPOCAST>
0

> <NHANES>
0

> <DATA_SOURCES>
1

> <TOXVAL_DATA>
0

> <TOXCAST_PERCENT_ACTIVE>
-

> <TOXCAST_NUMBER_OF_ASSAYS/TOTAL>
-

> <NUMBER_OF_PUBMED_ARTICLES>
-

> <PUBCHEM_DATA_SOURCES>
21

> <CPDAT_COUNT>
-

> <ATMOSPHERIC_HYDROXYLATION_RATE_(AOH)_CM3/MOLECULE*SEC_OPERA_PRED>
1.75998e-11

> <BIOCONCENTRATION_FACTOR_OPERA_PRED>
7.14211

> <BIODEGRADATION_HALF_LIFE_DAYS_DAYS_OPERA_PRED>
4.83648

> <BOILING_POINT_DEGC_OPERA_PRED>
265.828

> <HENRYS_LAW_ATM-M3/MOLE_OPERA_PRED>
1.36966e-07

> <OPERA_KM_DAYS_OPERA_PRED>
0.159639

> <OCTANOL_AIR_PARTITION_COEFF_LOGKOA_OPERA_PRED>
7.92166

> <SOIL_ADSORPTION_COEFFICIENT_KOC_L/KG_OPERA_PRED>
130.216

> <OCTANOL_WATER_PARTITION_LOGP_OPERA_PRED>
1.33585

> <MELTING_POINT_DEGC_OPERA_PRED>
78.5299

> <VAPOR_PRESSURE_MMHG_OPERA_PRED>
0.0119944

> <WATER_SOLUBILITY_MOL/L_OPERA_PRED>
0.194638

> <TEST_BCF_TEST_PRED>
6.9024

> <BOILING_POINT_DEGC_TEST_PRED>
273.316

> <DENSITY_G/CM^3_TEST_PRED>
1.023

> <FLASH_POINT_DEGC_TEST_PRED>
112.182

> <MELTING_POINT_DEGC_TEST_PRED>
53.053

> <SURFACE_TENSION_DYN/CM_TEST_PRED>
37.045

> <THERMAL_CONDUCTIVITY_MW/(M*K)_TEST_PRED>
173.03

> <VISCOSITY_CP_CP_TEST_PRED>
14.9968

> <VAPOR_PRESSURE_MMHG_TEST_PRED>
0.00106905

> <WATER_SOLUBILITY_MOL/L_TEST_PRED>
0.0500035

> <AEGLVALUES>
0

> <ALGALTOX>
0

> <ARCHEMICALS>
0

> <ATSDRLST>
0

> <BISPHENOLS>
0

> <OEHHA>
0

> <CERAPP>
0

> <FUNNAMES>
0

> <KWRSJERPS>
0

> <EPACONS>
0

> <IRIS>
0

> <EPAHFR>
0

> <EUCOSMETICS>
0

> <FRENCHLIST>
0

> <HEROMAP>
0

> <ITNANTIBIOTIC>
0

> <KEMIMARKET>
0

> <MASSBANKREF>
0

> <MASSBANKEUSP>
0

> <NEMILIST>
0

> <NATADB>
0

> <NIOSHIDLH>
0

> <NIOSHICSC>
0

> <NIOSHNPG>
0

> <NIOSHSKIN>
0

> <NORMANCT15>
0

> <SFISHFLUORO>
0

> <NORMANPRI>
0

> <NORMANEWS>
0

> <PFASTRIER>
0

> <SWISSPHARMA>
0

> <PPRTVWEB>
0

> <STOCKHOLM>
0

> <STOFFIDENT>
0

> <SCDM>
0

> <EAWAGSURF>
0

> <SWISSPEST>
0

> <TOX21SL>
0

> <TOXCAST>
0

> <TOXCAST_E1K>
0

> <TOXCAST_PH1V2>
0

> <TOXCAST_PH2>
0

> <TOXCAST_PH3>
0

> <TOXCAST_PHASEI>
0

> <TOXCAST_PHASEII>
0

> <TOXCAST_PHASEIII>
0

> <TRIRELEASE>
0

> <TSCASURF>
0

> <UJIBADE>
0

> <ATHENSSUS>
0

> <UATHTARGETS>
0

$$$$
542850
  Mrv1611109291613532D          

  0  0  0     0  0            999 V3000
M  V30 BEGIN CTAB
M  V30 COUNTS 12 13 0 0 0
M  V30 BEGIN ATOM
M  V30 1 N -0.0422 -4.2013 0 0
M  V30 2 C -0.518 -5.666 0 0
M  V30 3 C -2.058 -5.666 0 0
M  V30 4 C -2.5339 -4.2013 0 0
M  V30 5 C -1.288 -3.2962 0 0
M  V30 6 C -1.288 -1.7562 0 0
M  V30 7 C 0.0456 -0.9862 0 0
M  V30 8 C 0.0456 0.5538 0 0
M  V30 9 N 1.3793 1.3238 0 0
M  V30 10 C 2.713 0.5538 0 0
M  V30 11 C 2.713 -0.9862 0 0
M  V30 12 C 1.3793 -1.7562 0 0
M  V30 END ATOM
M  V30 BEGIN BOND
M  V30 1 1 1 2
M  V30 2 1 2 3
M  V30 3 1 3 4
M  V30 4 1 4 5
M  V30 5 1 5 1
M  V30 6 1 5 6
M  V30 7 1 6 7
M  V30 8 2 7 8
M  V30 9 1 8 9
M  V30 10 2 9 10
M  V30 11 1 10 11
M  V30 12 2 11 12
M  V30 13 1 12 7
M  V30 END BOND
M  V30 END CTAB
M  END

> <INPUT>
C10H14N2

> <FOUND_BY>
MS Ready Formula

> <DTXCID_INDIVIDUAL_COMPONENT>
DTXCID10862712

> <FORMULA_INDIVIDUAL_COMPONENT>
C10H14N2

> <SMILES_INDIVIDUAL_COMPONENT>
C(C1CCCN1)C1=CN=CC=C1

> <MAPPED_DTXSID>
DTXSID50592086

> <PREFERRED_NAME_DTXSID>
3-[(Pyrrolidin-2-yl)methyl]pyridine--hydrogen chloride (1/2)

> <CASRN_DTXSID>
1003561-86-1

> <FORMULA_MAPPED_DTXSID>
C10H16Cl2N2

> <SMILES_MAPPED_DTXSID>
Cl.Cl.C(C1CCCN1)C1=CN=CC=C1

> <MS_READY_SMILES>
C(C1CCCN1)C1=CN=CC=C1

> <INCHI_STRING_DTXCID>
InChI=1S/C10H14N2/c1-3-9(8-11-5-1)7-10-4-2-6-12-10/h1,3,5,8,10,12H,2,4,6-7H2

> <INCHIKEY_DTXCID>
GFYJSFUVPAUKJA-UHFFFAOYSA-N

> <MONOISOTOPIC_MASS_DTXCID>
162.115698459

> <EXPOCAST_MEDIAN_EXPOSURE_PREDICTION_MG/KG-BW/DAY>
-

> <EXPOCAST>
0

> <NHANES>
0

> <DATA_SOURCES>
1

> <TOXVAL_DATA>
0

> <TOXCAST_PERCENT_ACTIVE>
-

> <TOXCAST_NUMBER_OF_ASSAYS/TOTAL>
-

> <NUMBER_OF_PUBMED_ARTICLES>
-

> <PUBCHEM_DATA_SOURCES>
18

> <CPDAT_COUNT>
-

> <ATMOSPHERIC_HYDROXYLATION_RATE_(AOH)_CM3/MOLECULE*SEC_OPERA_PRED>
5.215e-11

> <BIOCONCENTRATION_FACTOR_OPERA_PRED>
4.68568

> <BIODEGRADATION_HALF_LIFE_DAYS_DAYS_OPERA_PRED>
2.7786

> <BOILING_POINT_DEGC_OPERA_PRED>
281.002

> <HENRYS_LAW_ATM-M3/MOLE_OPERA_PRED>
2.78357e-07

> <OPERA_KM_DAYS_OPERA_PRED>
0.563592

> <OCTANOL_AIR_PARTITION_COEFF_LOGKOA_OPERA_PRED>
8.36352

> <SOIL_ADSORPTION_COEFFICIENT_KOC_L/KG_OPERA_PRED>
142.068

> <OCTANOL_WATER_PARTITION_LOGP_OPERA_PRED>
1.07696

> <MELTING_POINT_DEGC_OPERA_PRED>
86.134

> <VAPOR_PRESSURE_MMHG_OPERA_PRED>
0.0118459

> <WATER_SOLUBILITY_MOL/L_OPERA_PRED>
1.12827

> <TEST_BCF_TEST_PRED>
11.246

> <BOILING_POINT_DEGC_TEST_PRED>
267.744

> <DENSITY_G/CM^3_TEST_PRED>
1.039

> <FLASH_POINT_DEGC_TEST_PRED>
111.354

> <MELTING_POINT_DEGC_TEST_PRED>
34.536

> <SURFACE_TENSION_DYN/CM_TEST_PRED>
36.771

> <THERMAL_CONDUCTIVITY_MW/(M*K)_TEST_PRED>
148.551

> <VISCOSITY_CP_CP_TEST_PRED>
10.3039

> <VAPOR_PRESSURE_MMHG_TEST_PRED>
0.00415911

> <WATER_SOLUBILITY_MOL/L_TEST_PRED>
0.0349945

> <AEGLVALUES>
0

> <ALGALTOX>
0

> <ARCHEMICALS>
0

> <ATSDRLST>
0

> <BISPHENOLS>
0

> <OEHHA>
0

> <CERAPP>
0

> <FUNNAMES>
0

> <KWRSJERPS>
0

> <EPACONS>
0

> <IRIS>
0

> <EPAHFR>
0

> <EUCOSMETICS>
0

> <FRENCHLIST>
0

> <HEROMAP>
0

> <ITNANTIBIOTIC>
0

> <KEMIMARKET>
0

> <MASSBANKREF>
0

> <MASSBANKEUSP>
0

> <NEMILIST>
0

> <NATADB>
0

> <NIOSHIDLH>
0

> <NIOSHICSC>
0

> <NIOSHNPG>
0

> <NIOSHSKIN>
0

> <NORMANCT15>
0

> <SFISHFLUORO>
0

> <NORMANPRI>
0

> <NORMANEWS>
0

> <PFASTRIER>
0

> <SWISSPHARMA>
0

> <PPRTVWEB>
0

> <STOCKHOLM>
0

> <STOFFIDENT>
0

> <SCDM>
0

> <EAWAGSURF>
0

> <SWISSPEST>
0

> <TOX21SL>
0

> <TOXCAST>
0

> <TOXCAST_E1K>
0

> <TOXCAST_PH1V2>
0

> <TOXCAST_PH2>
0

> <TOXCAST_PH3>
0

> <TOXCAST_PHASEI>
0

> <TOXCAST_PHASEII>
0

> <TOXCAST_PHASEIII>
0

> <TRIRELEASE>
0

> <TSCASURF>
0

> <UJIBADE>
0

> <ATHENSSUS>
0

> <UATHTARGETS>
0

$$$$

  Mrv1533009301519532D          

  0  0  0     0  0            999 V3000
M  V30 BEGIN CTAB
M  V30 COUNTS 12 12 0 0 0
M  V30 BEGIN ATOM
M  V30 1 N 4.4137 0.9163 0 0
M  V30 2 N 5.7475 3.2263 0 0
M  V30 3 C 7.0812 0.9163 0 0
M  V30 4 C 5.7475 1.6863 0 0
M  V30 5 C 8.4149 1.6863 0 0
M  V30 6 C 7.0812 -0.6237 0 0
M  V30 7 C 4.4137 -0.6237 0 0
M  V30 8 C 3.08 -1.3937 0 0
M  V30 9 C 5.7475 -1.3937 0 0
M  V30 10 C 3.08 -2.9338 0 0
M  V30 11 C 5.7475 -2.9338 0 0
M  V30 12 C 4.4137 -3.7038 0 0
M  V30 END ATOM
M  V30 BEGIN BOND
M  V30 1 2 1 4
M  V30 2 1 1 7
M  V30 3 1 2 4
M  V30 4 1 3 4
M  V30 5 1 3 5
M  V30 6 1 3 6
M  V30 7 2 7 8
M  V30 8 1 7 9
M  V30 9 1 8 10
M  V30 10 2 9 11
M  V30 11 2 10 12
M  V30 12 1 11 12
M  V30 END BOND
M  V30 END CTAB
M  END

> <INPUT>
C10H14N2

> <FOUND_BY>
MS Ready Formula

> <DTXCID_INDIVIDUAL_COMPONENT>
DTXCID50543336

> <FORMULA_INDIVIDUAL_COMPONENT>
C10H14N2

> <SMILES_INDIVIDUAL_COMPONENT>
CC(C)C(\N)=N/C1=CC=CC=C1

> <MAPPED_DTXSID>
DTXSID60592572

> <PREFERRED_NAME_DTXSID>
(1E)-2-Methyl-N'-phenylpropanimidamide

> <CASRN_DTXSID>
14041-89-5

> <FORMULA_MAPPED_DTXSID>
C10H14N2

> <SMILES_MAPPED_DTXSID>
CC(C)C(\N)=N/C1=CC=CC=C1

> <MS_READY_SMILES>
CC(C)C(\N)=N/C1=CC=CC=C1

> <INCHI_STRING_DTXCID>
InChI=1S/C10H14N2/c1-8(2)10(11)12-9-6-4-3-5-7-9/h3-8H,1-2H3,(H2,11,12)

> <INCHIKEY_DTXCID>
AGHDSXKIGIOMJN-UHFFFAOYSA-N

> <MONOISOTOPIC_MASS_DTXCID>
162.115698459

> <EXPOCAST_MEDIAN_EXPOSURE_PREDICTION_MG/KG-BW/DAY>
-

> <EXPOCAST>
0

> <NHANES>
0

> <DATA_SOURCES>
1

> <TOXVAL_DATA>
0

> <TOXCAST_PERCENT_ACTIVE>
-

> <TOXCAST_NUMBER_OF_ASSAYS/TOTAL>
-

> <NUMBER_OF_PUBMED_ARTICLES>
-

> <PUBCHEM_DATA_SOURCES>
10

> <CPDAT_COUNT>
-

> <ATMOSPHERIC_HYDROXYLATION_RATE_(AOH)_CM3/MOLECULE*SEC_OPERA_PRED>
1.85219e-11

> <BIOCONCENTRATION_FACTOR_OPERA_PRED>
6.08731

> <BIODEGRADATION_HALF_LIFE_DAYS_DAYS_OPERA_PRED>
4.04622

> <BOILING_POINT_DEGC_OPERA_PRED>
284.185

> <HENRYS_LAW_ATM-M3/MOLE_OPERA_PRED>
1.31531e-07

> <OPERA_KM_DAYS_OPERA_PRED>
0.411155

> <OCTANOL_AIR_PARTITION_COEFF_LOGKOA_OPERA_PRED>
7.43743

> <SOIL_ADSORPTION_COEFFICIENT_KOC_L/KG_OPERA_PRED>
82.5697

> <OCTANOL_WATER_PARTITION_LOGP_OPERA_PRED>
2.2275

> <MELTING_POINT_DEGC_OPERA_PRED>
96.6611

> <VAPOR_PRESSURE_MMHG_OPERA_PRED>
0.0232737

> <WATER_SOLUBILITY_MOL/L_OPERA_PRED>
0.0195993

> <TEST_BCF_TEST_PRED>
27.9254

> <BOILING_POINT_DEGC_TEST_PRED>
-

> <DENSITY_G/CM^3_TEST_PRED>
1.122

> <FLASH_POINT_DEGC_TEST_PRED>
134.08

> <MELTING_POINT_DEGC_TEST_PRED>
135.162

> <SURFACE_TENSION_DYN/CM_TEST_PRED>
-

> <THERMAL_CONDUCTIVITY_MW/(M*K)_TEST_PRED>
-

> <VISCOSITY_CP_CP_TEST_PRED>
-

> <VAPOR_PRESSURE_MMHG_TEST_PRED>
-

> <WATER_SOLUBILITY_MOL/L_TEST_PRED>
0.0140605

> <AEGLVALUES>
0

> <ALGALTOX>
0

> <ARCHEMICALS>
0

> <ATSDRLST>
0

> <BISPHENOLS>
0

> <OEHHA>
0

> <CERAPP>
0

> <FUNNAMES>
0

> <KWRSJERPS>
0

> <EPACONS>
0

> <IRIS>
0

> <EPAHFR>
0

> <EUCOSMETICS>
0

> <FRENCHLIST>
0

> <HEROMAP>
0

> <ITNANTIBIOTIC>
0

> <KEMIMARKET>
0

> <MASSBANKREF>
0

> <MASSBANKEUSP>
0

> <NEMILIST>
0

> <NATADB>
0

> <NIOSHIDLH>
0

> <NIOSHICSC>
0

> <NIOSHNPG>
0

> <NIOSHSKIN>
0

> <NORMANCT15>
0

> <SFISHFLUORO>
0

> <NORMANPRI>
0

> <NORMANEWS>
0

> <PFASTRIER>
0

> <SWISSPHARMA>
0

> <PPRTVWEB>
0

> <STOCKHOLM>
0

> <STOFFIDENT>
0

> <SCDM>
0

> <EAWAGSURF>
0

> <SWISSPEST>
0

> <TOX21SL>
0

> <TOXCAST>
0

> <TOXCAST_E1K>
0

> <TOXCAST_PH1V2>
0

> <TOXCAST_PH2>
0

> <TOXCAST_PH3>
0

> <TOXCAST_PHASEI>
0

> <TOXCAST_PHASEII>
0

> <TOXCAST_PHASEIII>
0

> <TRIRELEASE>
0

> <TSCASURF>
0

> <UJIBADE>
0

> <ATHENSSUS>
0

> <UATHTARGETS>
0

$$$$
544531
  Mrv1611109291613562D          

  0  0  0     0  0            999 V3000
M  V30 BEGIN CTAB
M  V30 COUNTS 12 13 0 0 0
M  V30 BEGIN ATOM
M  V30 1 N -1.0814 0.5111 0 0
M  V30 2 C -1.0814 2.0511 0 0
M  V30 3 C 0.2523 -0.2589 0 0
M  V30 4 C 1.586 0.5111 0 0
M  V30 5 C 2.9197 -0.2589 0 0
M  V30 6 C 2.9197 -1.7989 0 0
M  V30 7 C 1.586 -2.5689 0 0
M  V30 8 C 0.2523 -1.7989 0 0
M  V30 9 C -1.0814 -2.5689 0 0
M  V30 10 N -1.0814 -4.1089 0 0
M  V30 11 C -2.4151 -1.7989 0 0
M  V30 12 C -2.4151 -0.2589 0 0
M  V30 END ATOM
M  V30 BEGIN BOND
M  V30 1 1 1 2
M  V30 2 1 1 3
M  V30 3 2 3 4
M  V30 4 1 4 5
M  V30 5 2 5 6
M  V30 6 1 6 7
M  V30 7 2 7 8
M  V30 8 1 8 3
M  V30 9 1 8 9
M  V30 10 1 9 10
M  V30 11 1 9 11
M  V30 12 1 11 12
M  V30 13 1 12 1
M  V30 END BOND
M  V30 END CTAB
M  END

> <INPUT>
C10H14N2

> <FOUND_BY>
MS Ready Formula

> <DTXCID_INDIVIDUAL_COMPONENT>
DTXCID30863089

> <FORMULA_INDIVIDUAL_COMPONENT>
C10H14N2

> <SMILES_INDIVIDUAL_COMPONENT>
CN1CCC(N)C2=CC=CC=C12

> <MAPPED_DTXSID>
DTXSID80593768

> <PREFERRED_NAME_DTXSID>
1-Methyl-1,2,3,4-tetrahydroquinolin-4-amine

> <CASRN_DTXSID>
851390-46-0

> <FORMULA_MAPPED_DTXSID>
C10H14N2

> <SMILES_MAPPED_DTXSID>
CN1CCC(N)C2=CC=CC=C12

> <MS_READY_SMILES>
CN1CCC(N)C2=CC=CC=C12

> <INCHI_STRING_DTXCID>
InChI=1S/C10H14N2/c1-12-7-6-9(11)8-4-2-3-5-10(8)12/h2-5,9H,6-7,11H2,1H3

> <INCHIKEY_DTXCID>
HMCPFKPMDMJMGK-UHFFFAOYSA-N

> <MONOISOTOPIC_MASS_DTXCID>
162.115698459

> <EXPOCAST_MEDIAN_EXPOSURE_PREDICTION_MG/KG-BW/DAY>
-

> <EXPOCAST>
0

> <NHANES>
0

> <DATA_SOURCES>
1

> <TOXVAL_DATA>
0

> <TOXCAST_PERCENT_ACTIVE>
-

> <TOXCAST_NUMBER_OF_ASSAYS/TOTAL>
-

> <NUMBER_OF_PUBMED_ARTICLES>
-

> <PUBCHEM_DATA_SOURCES>
21

> <CPDAT_COUNT>
-

> <ATMOSPHERIC_HYDROXYLATION_RATE_(AOH)_CM3/MOLECULE*SEC_OPERA_PRED>
2.16654e-11

> <BIOCONCENTRATION_FACTOR_OPERA_PRED>
6.44942

> <BIODEGRADATION_HALF_LIFE_DAYS_DAYS_OPERA_PRED>
2.56676

> <BOILING_POINT_DEGC_OPERA_PRED>
292.254

> <HENRYS_LAW_ATM-M3/MOLE_OPERA_PRED>
2.75169e-07

> <OPERA_KM_DAYS_OPERA_PRED>
0.376911

> <OCTANOL_AIR_PARTITION_COEFF_LOGKOA_OPERA_PRED>
8.56096

> <SOIL_ADSORPTION_COEFFICIENT_KOC_L/KG_OPERA_PRED>
122.391

> <OCTANOL_WATER_PARTITION_LOGP_OPERA_PRED>
1.0963

> <MELTING_POINT_DEGC_OPERA_PRED>
146.752

> <VAPOR_PRESSURE_MMHG_OPERA_PRED>
0.000136633

> <WATER_SOLUBILITY_MOL/L_OPERA_PRED>
0.0401371

> <TEST_BCF_TEST_PRED>
17.5388

> <BOILING_POINT_DEGC_TEST_PRED>
261.116

> <DENSITY_G/CM^3_TEST_PRED>
1.063

> <FLASH_POINT_DEGC_TEST_PRED>
107.504

> <MELTING_POINT_DEGC_TEST_PRED>
73.604

> <SURFACE_TENSION_DYN/CM_TEST_PRED>
34.531

> <THERMAL_CONDUCTIVITY_MW/(M*K)_TEST_PRED>
161.576

> <VISCOSITY_CP_CP_TEST_PRED>
6.63743

> <VAPOR_PRESSURE_MMHG_TEST_PRED>
0.00352371

> <WATER_SOLUBILITY_MOL/L_TEST_PRED>
0.0247742

> <AEGLVALUES>
0

> <ALGALTOX>
0

> <ARCHEMICALS>
0

> <ATSDRLST>
0

> <BISPHENOLS>
0

> <OEHHA>
0

> <CERAPP>
0

> <FUNNAMES>
0

> <KWRSJERPS>
0

> <EPACONS>
0

> <IRIS>
0

> <EPAHFR>
0

> <EUCOSMETICS>
0

> <FRENCHLIST>
0

> <HEROMAP>
0

> <ITNANTIBIOTIC>
0

> <KEMIMARKET>
0

> <MASSBANKREF>
0

> <MASSBANKEUSP>
0

> <NEMILIST>
0

> <NATADB>
0

> <NIOSHIDLH>
0

> <NIOSHICSC>
0

> <NIOSHNPG>
0

> <NIOSHSKIN>
0

> <NORMANCT15>
0

> <SFISHFLUORO>
0

> <NORMANPRI>
0

> <NORMANEWS>
0

> <PFASTRIER>
0

> <SWISSPHARMA>
0

> <PPRTVWEB>
0

> <STOCKHOLM>
0

> <STOFFIDENT>
0

> <SCDM>
0

> <EAWAGSURF>
0

> <SWISSPEST>
0

> <TOX21SL>
0

> <TOXCAST>
0

> <TOXCAST_E1K>
0

> <TOXCAST_PH1V2>
0

> <TOXCAST_PH2>
0

> <TOXCAST_PH3>
0

> <TOXCAST_PHASEI>
0

> <TOXCAST_PHASEII>
0

> <TOXCAST_PHASEIII>
0

> <TRIRELEASE>
0

> <TSCASURF>
0

> <UJIBADE>
0

> <ATHENSSUS>
0

> <UATHTARGETS>
0

$$$$

  Mrv1533009301519532D          

  0  0  0     0  0            999 V3000
M  V30 BEGIN CTAB
M  V30 COUNTS 12 13 0 0 1
M  V30 BEGIN ATOM
M  V30 1 N 9.3653 0.499 0 0
M  V30 2 N 3.9069 0.7997 0 0
M  V30 3 C 10.2641 -0.7403 0 0
M  V30 4 C 9.3653 -1.9798 0 0
M  V30 5 C 7.9081 0.0297 0 0
M  V30 6 C 7.9081 -1.5103 0 0
M  V30 7 C 9.8437 1.9628 0 0
M  V30 8 C 6.5744 0.7997 0 0
M  V30 9 C 6.5744 -2.2803 0 0
M  V30 10 C 5.2407 0.0297 0 0
M  V30 11 C 11.3506 2.2803 0 0
M  V30 12 C 5.2407 -1.5103 0 0
M  V30 END ATOM
M  V30 BEGIN BOND
M  V30 1 1 1 3
M  V30 2 1 1 5
M  V30 3 1 1 7
M  V30 4 1 2 10
M  V30 5 1 3 4
M  V30 6 1 4 6
M  V30 7 2 5 6
M  V30 8 1 5 8
M  V30 9 1 6 9
M  V30 10 1 7 11
M  V30 11 2 8 10
M  V30 12 2 9 12
M  V30 13 1 10 12
M  V30 END BOND
M  V30 END CTAB
M  END

> <INPUT>
C10H14N2

> <FOUND_BY>
MS Ready Formula

> <DTXCID_INDIVIDUAL_COMPONENT>
DTXCID60544819

> <FORMULA_INDIVIDUAL_COMPONENT>
C10H14N2

> <SMILES_INDIVIDUAL_COMPONENT>
CCN1CCC2=C1C=C(N)C=C2

> <MAPPED_DTXSID>
DTXSID60594056

> <PREFERRED_NAME_DTXSID>
1-Ethyl-2,3-dihydro-1H-indol-6-amine

> <CASRN_DTXSID>
143543-67-3

> <FORMULA_MAPPED_DTXSID>
C10H14N2

> <SMILES_MAPPED_DTXSID>
CCN1CCC2=C1C=C(N)C=C2

> <MS_READY_SMILES>
CCN1CCC2=C1C=C(N)C=C2

> <INCHI_STRING_DTXCID>
InChI=1S/C10H14N2/c1-2-12-6-5-8-3-4-9(11)7-10(8)12/h3-4,7H,2,5-6,11H2,1H3

> <INCHIKEY_DTXCID>
DASPMFXHFCNQHX-UHFFFAOYSA-N

> <MONOISOTOPIC_MASS_DTXCID>
162.115698459

> <EXPOCAST_MEDIAN_EXPOSURE_PREDICTION_MG/KG-BW/DAY>
-

> <EXPOCAST>
0

> <NHANES>
0

> <DATA_SOURCES>
1

> <TOXVAL_DATA>
0

> <TOXCAST_PERCENT_ACTIVE>
-

> <TOXCAST_NUMBER_OF_ASSAYS/TOTAL>
-

> <NUMBER_OF_PUBMED_ARTICLES>
-

> <PUBCHEM_DATA_SOURCES>
27

> <CPDAT_COUNT>
-

> <ATMOSPHERIC_HYDROXYLATION_RATE_(AOH)_CM3/MOLECULE*SEC_OPERA_PRED>
1.78431e-11

> <BIOCONCENTRATION_FACTOR_OPERA_PRED>
12.1929

> <BIODEGRADATION_HALF_LIFE_DAYS_DAYS_OPERA_PRED>
2.93885

> <BOILING_POINT_DEGC_OPERA_PRED>
298.122

> <HENRYS_LAW_ATM-M3/MOLE_OPERA_PRED>
2.1749e-07

> <OPERA_KM_DAYS_OPERA_PRED>
0.161677

> <OCTANOL_AIR_PARTITION_COEFF_LOGKOA_OPERA_PRED>
8.74629

> <SOIL_ADSORPTION_COEFFICIENT_KOC_L/KG_OPERA_PRED>
181.379

> <OCTANOL_WATER_PARTITION_LOGP_OPERA_PRED>
1.3722

> <MELTING_POINT_DEGC_OPERA_PRED>
141.257

> <VAPOR_PRESSURE_MMHG_OPERA_PRED>
0.000106591

> <WATER_SOLUBILITY_MOL/L_OPERA_PRED>
0.0155319

> <TEST_BCF_TEST_PRED>
12.5603

> <BOILING_POINT_DEGC_TEST_PRED>
286.496

> <DENSITY_G/CM^3_TEST_PRED>
1.134

> <FLASH_POINT_DEGC_TEST_PRED>
132.077

> <MELTING_POINT_DEGC_TEST_PRED>
71.559

> <SURFACE_TENSION_DYN/CM_TEST_PRED>
-

> <THERMAL_CONDUCTIVITY_MW/(M*K)_TEST_PRED>
161.414

> <VISCOSITY_CP_CP_TEST_PRED>
4.63447

> <VAPOR_PRESSURE_MMHG_TEST_PRED>
0.00097949

> <WATER_SOLUBILITY_MOL/L_TEST_PRED>
0.0177011

> <AEGLVALUES>
0

> <ALGALTOX>
0

> <ARCHEMICALS>
0

> <ATSDRLST>
0

> <BISPHENOLS>
0

> <OEHHA>
0

> <CERAPP>
0

> <FUNNAMES>
0

> <KWRSJERPS>
0

> <EPACONS>
0

> <IRIS>
0

> <EPAHFR>
0

> <EUCOSMETICS>
0

> <FRENCHLIST>
0

> <HEROMAP>
0

> <ITNANTIBIOTIC>
0

> <KEMIMARKET>
0

> <MASSBANKREF>
0

> <MASSBANKEUSP>
0

> <NEMILIST>
0

> <NATADB>
0

> <NIOSHIDLH>
0

> <NIOSHICSC>
0

> <NIOSHNPG>
0

> <NIOSHSKIN>
0

> <NORMANCT15>
0

> <SFISHFLUORO>
0

> <NORMANPRI>
0

> <NORMANEWS>
0

> <PFASTRIER>
0

> <SWISSPHARMA>
0

> <PPRTVWEB>
0

> <STOCKHOLM>
0

> <STOFFIDENT>
0

> <SCDM>
0

> <EAWAGSURF>
0

> <SWISSPEST>
0

> <TOX21SL>
0

> <TOXCAST>
0

> <TOXCAST_E1K>
0

> <TOXCAST_PH1V2>
0

> <TOXCAST_PH2>
0

> <TOXCAST_PH3>
0

> <TOXCAST_PHASEI>
0

> <TOXCAST_PHASEII>
0

> <TOXCAST_PHASEIII>
0

> <TRIRELEASE>
0

> <TSCASURF>
0

> <UJIBADE>
0

> <ATHENSSUS>
0

> <UATHTARGETS>
0

$$$$
546592
  Mrv1611109291613592D          

  0  0  0     0  0            999 V3000
M  V30 BEGIN CTAB
M  V30 COUNTS 12 13 0 0 0
M  V30 BEGIN ATOM
M  V30 1 N 1.7475 0.715 0 0
M  V30 2 C 1.7475 2.255 0 0
M  V30 3 C 2.9934 -0.1902 0 0
M  V30 4 C 2.5175 -1.6548 0 0
M  V30 5 C 0.9775 -1.6548 0 0
M  V30 6 C 0.0723 -2.9007 0 0
M  V30 7 C 0.6987 -4.3076 0 0
M  V30 8 C -0.2065 -5.5535 0 0
M  V30 9 N -1.7381 -5.3925 0 0
M  V30 10 C -2.3644 -3.9856 0 0
M  V30 11 C -1.4592 -2.7398 0 0
M  V30 12 C 0.5016 -0.1902 0 0
M  V30 END ATOM
M  V30 BEGIN BOND
M  V30 1 1 1 2
M  V30 2 1 1 3
M  V30 3 1 3 4
M  V30 4 1 4 5
M  V30 5 1 5 6
M  V30 6 2 6 7
M  V30 7 1 7 8
M  V30 8 2 8 9
M  V30 9 1 9 10
M  V30 10 2 10 11
M  V30 11 1 11 6
M  V30 12 1 5 12
M  V30 13 1 12 1
M  V30 END BOND
M  V30 END CTAB
M  END

> <INPUT>
C10H14N2

> <FOUND_BY>
MS Ready Formula

> <DTXCID_INDIVIDUAL_COMPONENT>
DTXCID40863510

> <FORMULA_INDIVIDUAL_COMPONENT>
C10H14N2

> <SMILES_INDIVIDUAL_COMPONENT>
CN1CCC(C1)C1=CC=NC=C1

> <MAPPED_DTXSID>
DTXSID40595829

> <PREFERRED_NAME_DTXSID>
4-(1-Methylpyrrolidin-3-yl)pyridine

> <CASRN_DTXSID>
92118-23-5

> <FORMULA_MAPPED_DTXSID>
C10H14N2

> <SMILES_MAPPED_DTXSID>
CN1CCC(C1)C1=CC=NC=C1

> <MS_READY_SMILES>
CN1CCC(C1)C1=CC=NC=C1

> <INCHI_STRING_DTXCID>
InChI=1S/C10H14N2/c1-12-7-4-10(8-12)9-2-5-11-6-3-9/h2-3,5-6,10H,4,7-8H2,1H3

> <INCHIKEY_DTXCID>
IIOIXXVCPOKENC-UHFFFAOYSA-N

> <MONOISOTOPIC_MASS_DTXCID>
162.115698459

> <EXPOCAST_MEDIAN_EXPOSURE_PREDICTION_MG/KG-BW/DAY>
-

> <EXPOCAST>
0

> <NHANES>
0

> <DATA_SOURCES>
1

> <TOXVAL_DATA>
0

> <TOXCAST_PERCENT_ACTIVE>
-

> <TOXCAST_NUMBER_OF_ASSAYS/TOTAL>
-

> <NUMBER_OF_PUBMED_ARTICLES>
-

> <PUBCHEM_DATA_SOURCES>
9

> <CPDAT_COUNT>
-

> <ATMOSPHERIC_HYDROXYLATION_RATE_(AOH)_CM3/MOLECULE*SEC_OPERA_PRED>
4.31465e-11

> <BIOCONCENTRATION_FACTOR_OPERA_PRED>
4.66318

> <BIODEGRADATION_HALF_LIFE_DAYS_DAYS_OPERA_PRED>
3.35905

> <BOILING_POINT_DEGC_OPERA_PRED>
254.192

> <HENRYS_LAW_ATM-M3/MOLE_OPERA_PRED>
6.77684e-06

> <OPERA_KM_DAYS_OPERA_PRED>
2.63886

> <OCTANOL_AIR_PARTITION_COEFF_LOGKOA_OPERA_PRED>
5.80576

> <SOIL_ADSORPTION_COEFFICIENT_KOC_L/KG_OPERA_PRED>
159.277

> <OCTANOL_WATER_PARTITION_LOGP_OPERA_PRED>
1.17459

> <MELTING_POINT_DEGC_OPERA_PRED>
-45.51

> <VAPOR_PRESSURE_MMHG_OPERA_PRED>
0.00826732

> <WATER_SOLUBILITY_MOL/L_OPERA_PRED>
3.64961

> <TEST_BCF_TEST_PRED>
10.5925

> <BOILING_POINT_DEGC_TEST_PRED>
242.536

> <DENSITY_G/CM^3_TEST_PRED>
1.018

> <FLASH_POINT_DEGC_TEST_PRED>
95.339

> <MELTING_POINT_DEGC_TEST_PRED>
23.322

> <SURFACE_TENSION_DYN/CM_TEST_PRED>
36.267

> <THERMAL_CONDUCTIVITY_MW/(M*K)_TEST_PRED>
143.681

> <VISCOSITY_CP_CP_TEST_PRED>
7.46449

> <VAPOR_PRESSURE_MMHG_TEST_PRED>
0.0206063

> <WATER_SOLUBILITY_MOL/L_TEST_PRED>
0.0618016

> <AEGLVALUES>
0

> <ALGALTOX>
0

> <ARCHEMICALS>
0

> <ATSDRLST>
0

> <BISPHENOLS>
0

> <OEHHA>
0

> <CERAPP>
0

> <FUNNAMES>
0

> <KWRSJERPS>
0

> <EPACONS>
0

> <IRIS>
0

> <EPAHFR>
0

> <EUCOSMETICS>
0

> <FRENCHLIST>
0

> <HEROMAP>
0

> <ITNANTIBIOTIC>
0

> <KEMIMARKET>
0

> <MASSBANKREF>
0

> <MASSBANKEUSP>
0

> <NEMILIST>
0

> <NATADB>
0

> <NIOSHIDLH>
0

> <NIOSHICSC>
0

> <NIOSHNPG>
0

> <NIOSHSKIN>
0

> <NORMANCT15>
0

> <SFISHFLUORO>
0

> <NORMANPRI>
0

> <NORMANEWS>
0

> <PFASTRIER>
0

> <SWISSPHARMA>
0

> <PPRTVWEB>
0

> <STOCKHOLM>
0

> <STOFFIDENT>
0

> <SCDM>
0

> <EAWAGSURF>
0

> <SWISSPEST>
0

> <TOX21SL>
0

> <TOXCAST>
0

> <TOXCAST_E1K>
0

> <TOXCAST_PH1V2>
0

> <TOXCAST_PH2>
0

> <TOXCAST_PH3>
0

> <TOXCAST_PHASEI>
0

> <TOXCAST_PHASEII>
0

> <TOXCAST_PHASEIII>
0

> <TRIRELEASE>
0

> <TSCASURF>
0

> <UJIBADE>
0

> <ATHENSSUS>
0

> <UATHTARGETS>
0

$$$$
546682
  Mrv1611109291614002D          

  0  0  0     0  0            999 V3000
M  V30 BEGIN CTAB
M  V30 COUNTS 12 13 0 0 0
M  V30 BEGIN ATOM
M  V30 1 N -1.2773 0.1391 0 0
M  V30 2 C 0.0564 -0.6309 0 0
M  V30 3 C 1.3901 0.1391 0 0
M  V30 4 C 2.7238 -0.6309 0 0
M  V30 5 C 2.7238 -2.1709 0 0
M  V30 6 C 1.3901 -2.9409 0 0
M  V30 7 C 0.0564 -2.1709 0 0
M  V30 8 C -1.2773 -2.9409 0 0
M  V30 9 C -2.6109 -2.1709 0 0
M  V30 10 C -2.6109 -0.6309 0 0
M  V30 11 C -3.9446 0.1391 0 0
M  V30 12 N 4.0575 -2.9409 0 0
M  V30 END ATOM
M  V30 BEGIN BOND
M  V30 1 1 1 2
M  V30 2 2 2 3
M  V30 3 1 3 4
M  V30 4 2 4 5
M  V30 5 1 5 6
M  V30 6 2 6 7
M  V30 7 1 7 2
M  V30 8 1 7 8
M  V30 9 1 8 9
M  V30 10 1 9 10
M  V30 11 1 10 1
M  V30 12 1 10 11
M  V30 13 1 5 12
M  V30 END BOND
M  V30 END CTAB
M  END

> <INPUT>
C10H14N2

> <FOUND_BY>
MS Ready Formula

> <DTXCID_INDIVIDUAL_COMPONENT>
DTXCID30863529

> <FORMULA_INDIVIDUAL_COMPONENT>
C10H14N2

> <SMILES_INDIVIDUAL_COMPONENT>
CC1CCC2=CC(N)=CC=C2N1

> <MAPPED_DTXSID>
DTXSID30595919

> <PREFERRED_NAME_DTXSID>
2-Methyl-1,2,3,4-tetrahydroquinolin-6-amine

> <CASRN_DTXSID>
649569-61-9

> <FORMULA_MAPPED_DTXSID>
C10H14N2

> <SMILES_MAPPED_DTXSID>
CC1CCC2=C(N1)C=CC(N)=C2

> <MS_READY_SMILES>
CC1CCC2=CC(N)=CC=C2N1

> <INCHI_STRING_DTXCID>
InChI=1S/C10H14N2/c1-7-2-3-8-6-9(11)4-5-10(8)12-7/h4-7,12H,2-3,11H2,1H3

> <INCHIKEY_DTXCID>
COFHVMXNLAGVTB-UHFFFAOYSA-N

> <MONOISOTOPIC_MASS_DTXCID>
162.115698459

> <EXPOCAST_MEDIAN_EXPOSURE_PREDICTION_MG/KG-BW/DAY>
-

> <EXPOCAST>
0

> <NHANES>
0

> <DATA_SOURCES>
1

> <TOXVAL_DATA>
0

> <TOXCAST_PERCENT_ACTIVE>
-

> <TOXCAST_NUMBER_OF_ASSAYS/TOTAL>
-

> <NUMBER_OF_PUBMED_ARTICLES>
-

> <PUBCHEM_DATA_SOURCES>
12

> <CPDAT_COUNT>
-

> <ATMOSPHERIC_HYDROXYLATION_RATE_(AOH)_CM3/MOLECULE*SEC_OPERA_PRED>
1.88308e-11

> <BIOCONCENTRATION_FACTOR_OPERA_PRED>
14.0523

> <BIODEGRADATION_HALF_LIFE_DAYS_DAYS_OPERA_PRED>
3.99527

> <BOILING_POINT_DEGC_OPERA_PRED>
264.802

> <HENRYS_LAW_ATM-M3/MOLE_OPERA_PRED>
3.63495e-08

> <OPERA_KM_DAYS_OPERA_PRED>
0.406997

> <OCTANOL_AIR_PARTITION_COEFF_LOGKOA_OPERA_PRED>
8.06608

> <SOIL_ADSORPTION_COEFFICIENT_KOC_L/KG_OPERA_PRED>
434.382

> <OCTANOL_WATER_PARTITION_LOGP_OPERA_PRED>
2.35417

> <MELTING_POINT_DEGC_OPERA_PRED>
112.498

> <VAPOR_PRESSURE_MMHG_OPERA_PRED>
3.31282e-05

> <WATER_SOLUBILITY_MOL/L_OPERA_PRED>
0.19456

> <TEST_BCF_TEST_PRED>
11.5345

> <BOILING_POINT_DEGC_TEST_PRED>
303.411

> <DENSITY_G/CM^3_TEST_PRED>
1.099

> <FLASH_POINT_DEGC_TEST_PRED>
142.899

> <MELTING_POINT_DEGC_TEST_PRED>
83.001

> <SURFACE_TENSION_DYN/CM_TEST_PRED>
-

> <THERMAL_CONDUCTIVITY_MW/(M*K)_TEST_PRED>
174.306

> <VISCOSITY_CP_CP_TEST_PRED>
16.9434

> <VAPOR_PRESSURE_MMHG_TEST_PRED>
3.48337e-05

> <WATER_SOLUBILITY_MOL/L_TEST_PRED>
0.0064121

> <AEGLVALUES>
0

> <ALGALTOX>
0

> <ARCHEMICALS>
0

> <ATSDRLST>
0

> <BISPHENOLS>
0

> <OEHHA>
0

> <CERAPP>
0

> <FUNNAMES>
0

> <KWRSJERPS>
0

> <EPACONS>
0

> <IRIS>
0

> <EPAHFR>
0

> <EUCOSMETICS>
0

> <FRENCHLIST>
0

> <HEROMAP>
0

> <ITNANTIBIOTIC>
0

> <KEMIMARKET>
0

> <MASSBANKREF>
0

> <MASSBANKEUSP>
0

> <NEMILIST>
0

> <NATADB>
0

> <NIOSHIDLH>
0

> <NIOSHICSC>
0

> <NIOSHNPG>
0

> <NIOSHSKIN>
0

> <NORMANCT15>
0

> <SFISHFLUORO>
0

> <NORMANPRI>
0

> <NORMANEWS>
0

> <PFASTRIER>
0

> <SWISSPHARMA>
0

> <PPRTVWEB>
0

> <STOCKHOLM>
0

> <STOFFIDENT>
0

> <SCDM>
0

> <EAWAGSURF>
0

> <SWISSPEST>
0

> <TOX21SL>
0

> <TOXCAST>
0

> <TOXCAST_E1K>
0

> <TOXCAST_PH1V2>
0

> <TOXCAST_PH2>
0

> <TOXCAST_PH3>
0

> <TOXCAST_PHASEI>
0

> <TOXCAST_PHASEII>
0

> <TOXCAST_PHASEIII>
0

> <TRIRELEASE>
0

> <TSCASURF>
0

> <UJIBADE>
0

> <ATHENSSUS>
0

> <UATHTARGETS>
0

$$$$
547451
  Mrv1611109291614012D          

  0  0  0     0  0            999 V3000
M  V30 BEGIN CTAB
M  V30 COUNTS 14 15 0 0 0
M  V30 BEGIN ATOM
M  V30 1 N 0.4828 0.6092 0 0
M  V30 2 C -1.0572 0.6092 0 0
M  V30 3 C 0.9153 -1.121 0 0
M  V30 4 H 0.5726 -2.6224 0 0
M  V30 5 C 2.4167 -0.7783 0 0
M  V30 6 C 3.0849 0.6092 0 0
M  V30 7 C 4.6249 0.6092 0 0
M  V30 8 C 5.3948 -0.7245 0 0
M  V30 9 N 6.1648 -2.0582 0 0
M  V30 10 C 2.4167 1.9967 0 0
M  V30 11 C 0.9153 2.3394 0 0
M  V30 12 H 0.5726 3.8408 0 0
M  V30 13 C -0.2887 1.3792 0 0
M  V30 14 C -0.2887 -0.1608 0 0
M  V30 END ATOM
M  V30 BEGIN BOND
M  V30 1 1 1 2
M  V30 2 1 1 3
M  V30 3 1 3 4
M  V30 4 1 3 5
M  V30 5 1 5 6
M  V30 6 2 6 7
M  V30 7 1 7 8
M  V30 8 3 8 9
M  V30 9 1 6 10
M  V30 10 1 10 11
M  V30 11 1 11 1
M  V30 12 1 11 12
M  V30 13 1 11 13
M  V30 14 1 13 14
M  V30 15 1 14 3
M  V30 END BOND
M  V30 END CTAB
M  END

> <INPUT>
C10H14N2

> <FOUND_BY>
MS Ready Formula

> <DTXCID_INDIVIDUAL_COMPONENT>
DTXCID60863693

> <FORMULA_INDIVIDUAL_COMPONENT>
C10H14N2

> <SMILES_INDIVIDUAL_COMPONENT>
[H]C12CCC([H])(CC(C1)=CC#N)N2C

> <MAPPED_DTXSID>
DTXSID90596689

> <PREFERRED_NAME_DTXSID>
(8-Methyl-8-azabicyclo[3.2.1]octan-3-ylidene)acetonitrile

> <CASRN_DTXSID>
91817-61-7

> <FORMULA_MAPPED_DTXSID>
C10H14N2

> <SMILES_MAPPED_DTXSID>
[H]C12CCC([H])(CC(C1)=CC#N)N2C

> <MS_READY_SMILES>
[H]C12CCC([H])(CC(C1)=CC#N)N2C

> <INCHI_STRING_DTXCID>
InChI=1S/C10H14N2/c1-12-9-2-3-10(12)7-8(6-9)4-5-11/h4,9-10H,2-3,6-7H2,1H3

> <INCHIKEY_DTXCID>
BEMIIPSHLWBOLS-UHFFFAOYSA-N

> <MONOISOTOPIC_MASS_DTXCID>
162.115698459

> <EXPOCAST_MEDIAN_EXPOSURE_PREDICTION_MG/KG-BW/DAY>
-

> <EXPOCAST>
0

> <NHANES>
0

> <DATA_SOURCES>
1

> <TOXVAL_DATA>
0

> <TOXCAST_PERCENT_ACTIVE>
-

> <TOXCAST_NUMBER_OF_ASSAYS/TOTAL>
-

> <NUMBER_OF_PUBMED_ARTICLES>
-

> <PUBCHEM_DATA_SOURCES>
9

> <CPDAT_COUNT>
-

> <ATMOSPHERIC_HYDROXYLATION_RATE_(AOH)_CM3/MOLECULE*SEC_OPERA_PRED>
6.81836e-11

> <BIOCONCENTRATION_FACTOR_OPERA_PRED>
6.39369

> <BIODEGRADATION_HALF_LIFE_DAYS_DAYS_OPERA_PRED>
3.54872

> <BOILING_POINT_DEGC_OPERA_PRED>
264.083

> <HENRYS_LAW_ATM-M3/MOLE_OPERA_PRED>
6.75287e-08

> <OPERA_KM_DAYS_OPERA_PRED>
2.16173

> <OCTANOL_AIR_PARTITION_COEFF_LOGKOA_OPERA_PRED>
5.75817

> <SOIL_ADSORPTION_COEFFICIENT_KOC_L/KG_OPERA_PRED>
146.317

> <OCTANOL_WATER_PARTITION_LOGP_OPERA_PRED>
1.09223

> <MELTING_POINT_DEGC_OPERA_PRED>
26.999

> <VAPOR_PRESSURE_MMHG_OPERA_PRED>
0.00406071

> <WATER_SOLUBILITY_MOL/L_OPERA_PRED>
1.55549

> <TEST_BCF_TEST_PRED>
-

> <BOILING_POINT_DEGC_TEST_PRED>
248.514

> <DENSITY_G/CM^3_TEST_PRED>
1.072

> <FLASH_POINT_DEGC_TEST_PRED>
107.258

> <MELTING_POINT_DEGC_TEST_PRED>
67.276

> <SURFACE_TENSION_DYN/CM_TEST_PRED>
35.655

> <THERMAL_CONDUCTIVITY_MW/(M*K)_TEST_PRED>
160.952

> <VISCOSITY_CP_CP_TEST_PRED>
-

> <VAPOR_PRESSURE_MMHG_TEST_PRED>
-

> <WATER_SOLUBILITY_MOL/L_TEST_PRED>
0.0119674

> <AEGLVALUES>
0

> <ALGALTOX>
0

> <ARCHEMICALS>
0

> <ATSDRLST>
0

> <BISPHENOLS>
0

> <OEHHA>
0

> <CERAPP>
0

> <FUNNAMES>
0

> <KWRSJERPS>
0

> <EPACONS>
0

> <IRIS>
0

> <EPAHFR>
0

> <EUCOSMETICS>
0

> <FRENCHLIST>
0

> <HEROMAP>
0

> <ITNANTIBIOTIC>
0

> <KEMIMARKET>
0

> <MASSBANKREF>
0

> <MASSBANKEUSP>
0

> <NEMILIST>
0

> <NATADB>
0

> <NIOSHIDLH>
0

> <NIOSHICSC>
0

> <NIOSHNPG>
0

> <NIOSHSKIN>
0

> <NORMANCT15>
0

> <SFISHFLUORO>
0

> <NORMANPRI>
0

> <NORMANEWS>
0

> <PFASTRIER>
0

> <SWISSPHARMA>
0

> <PPRTVWEB>
0

> <STOCKHOLM>
0

> <STOFFIDENT>
0

> <SCDM>
0

> <EAWAGSURF>
0

> <SWISSPEST>
0

> <TOX21SL>
0

> <TOXCAST>
0

> <TOXCAST_E1K>
0

> <TOXCAST_PH1V2>
0

> <TOXCAST_PH2>
0

> <TOXCAST_PH3>
0

> <TOXCAST_PHASEI>
0

> <TOXCAST_PHASEII>
0

> <TOXCAST_PHASEIII>
0

> <TRIRELEASE>
0

> <TSCASURF>
0

> <UJIBADE>
0

> <ATHENSSUS>
0

> <UATHTARGETS>
0

$$$$
557767
  Mrv1611109291614172D          

  0  0  0     0  0            999 V3000
M  V30 BEGIN CTAB
M  V30 COUNTS 12 11 0 0 0
M  V30 BEGIN ATOM
M  V30 1 N -4.1763 -3.9314 0 0
M  V30 2 C -2.8426 -4.7014 0 0
M  V30 3 C -1.509 -5.4714 0 0
M  V30 4 C -1.509 -7.0114 0 0
M  V30 5 C -0.1753 -4.7014 0 0
M  V30 6 C 1.1584 -5.4714 0 0
M  V30 7 C 1.1584 -7.0114 0 0
M  V30 8 C 2.4921 -4.7014 0 0
M  V30 9 C 3.8257 -5.4714 0 0
M  V30 10 C 5.1594 -4.7014 0 0
M  V30 11 N 6.4931 -3.9314 0 0
M  V30 12 C 3.8257 -7.0114 0 0
M  V30 END ATOM
M  V30 BEGIN BOND
M  V30 1 3 1 2
M  V30 2 1 2 3
M  V30 3 1 3 4
M  V30 4 1 3 5
M  V30 5 1 5 6
M  V30 6 2 6 7
M  V30 7 1 6 8
M  V30 8 1 8 9
M  V30 9 1 9 10
M  V30 10 3 10 11
M  V30 11 1 9 12
M  V30 END BOND
M  V30 END CTAB
M  END

> <INPUT>
C10H14N2

> <FOUND_BY>
MS Ready Formula

> <DTXCID_INDIVIDUAL_COMPONENT>
DTXCID30866151

> <FORMULA_INDIVIDUAL_COMPONENT>
C10H14N2

> <SMILES_INDIVIDUAL_COMPONENT>
CC(CC(=C)CC(C)C#N)C#N

> <MAPPED_DTXSID>
DTXSID20607010

> <PREFERRED_NAME_DTXSID>
2,6-Dimethyl-4-methylideneheptanedinitrile

> <CASRN_DTXSID>
62722-58-1

> <FORMULA_MAPPED_DTXSID>
C10H14N2

> <SMILES_MAPPED_DTXSID>
CC(CC(=C)CC(C)C#N)C#N

> <MS_READY_SMILES>
CC(CC(=C)CC(C)C#N)C#N

> <INCHI_STRING_DTXCID>
InChI=1S/C10H14N2/c1-8(4-9(2)6-11)5-10(3)7-12/h9-10H,1,4-5H2,2-3H3

> <INCHIKEY_DTXCID>
BZUFWXZPPANFKK-UHFFFAOYSA-N

> <MONOISOTOPIC_MASS_DTXCID>
162.115698459

> <EXPOCAST_MEDIAN_EXPOSURE_PREDICTION_MG/KG-BW/DAY>
-

> <EXPOCAST>
0

> <NHANES>
0

> <DATA_SOURCES>
1

> <TOXVAL_DATA>
0

> <TOXCAST_PERCENT_ACTIVE>
-

> <TOXCAST_NUMBER_OF_ASSAYS/TOTAL>
-

> <NUMBER_OF_PUBMED_ARTICLES>
-

> <PUBCHEM_DATA_SOURCES>
8

> <CPDAT_COUNT>
-

> <ATMOSPHERIC_HYDROXYLATION_RATE_(AOH)_CM3/MOLECULE*SEC_OPERA_PRED>
1.25255e-10

> <BIOCONCENTRATION_FACTOR_OPERA_PRED>
11.0356

> <BIODEGRADATION_HALF_LIFE_DAYS_DAYS_OPERA_PRED>
4.97061

> <BOILING_POINT_DEGC_OPERA_PRED>
283.361

> <HENRYS_LAW_ATM-M3/MOLE_OPERA_PRED>
9.96198e-08

> <OPERA_KM_DAYS_OPERA_PRED>
1.25943

> <OCTANOL_AIR_PARTITION_COEFF_LOGKOA_OPERA_PRED>
5.74796

> <SOIL_ADSORPTION_COEFFICIENT_KOC_L/KG_OPERA_PRED>
114.529

> <OCTANOL_WATER_PARTITION_LOGP_OPERA_PRED>
0.99539

> <MELTING_POINT_DEGC_OPERA_PRED>
25.0383

> <VAPOR_PRESSURE_MMHG_OPERA_PRED>
0.0102995

> <WATER_SOLUBILITY_MOL/L_OPERA_PRED>
0.0826692

> <TEST_BCF_TEST_PRED>
8.37529

> <BOILING_POINT_DEGC_TEST_PRED>
285.453

> <DENSITY_G/CM^3_TEST_PRED>
0.953

> <FLASH_POINT_DEGC_TEST_PRED>
144.999

> <MELTING_POINT_DEGC_TEST_PRED>
27.107

> <SURFACE_TENSION_DYN/CM_TEST_PRED>
38.208

> <THERMAL_CONDUCTIVITY_MW/(M*K)_TEST_PRED>
-

> <VISCOSITY_CP_CP_TEST_PRED>
1.92309

> <VAPOR_PRESSURE_MMHG_TEST_PRED>
0.00711214

> <WATER_SOLUBILITY_MOL/L_TEST_PRED>
0.0322849

> <AEGLVALUES>
0

> <ALGALTOX>
0

> <ARCHEMICALS>
0

> <ATSDRLST>
0

> <BISPHENOLS>
0

> <OEHHA>
0

> <CERAPP>
0

> <FUNNAMES>
0

> <KWRSJERPS>
0

> <EPACONS>
0

> <IRIS>
0

> <EPAHFR>
0

> <EUCOSMETICS>
0

> <FRENCHLIST>
0

> <HEROMAP>
0

> <ITNANTIBIOTIC>
0

> <KEMIMARKET>
0

> <MASSBANKREF>
0

> <MASSBANKEUSP>
0

> <NEMILIST>
0

> <NATADB>
0

> <NIOSHIDLH>
0

> <NIOSHICSC>
0

> <NIOSHNPG>
0

> <NIOSHSKIN>
0

> <NORMANCT15>
0

> <SFISHFLUORO>
0

> <NORMANPRI>
0

> <NORMANEWS>
0

> <PFASTRIER>
0

> <SWISSPHARMA>
0

> <PPRTVWEB>
0

> <STOCKHOLM>
0

> <STOFFIDENT>
0

> <SCDM>
0

> <EAWAGSURF>
0

> <SWISSPEST>
0

> <TOX21SL>
0

> <TOXCAST>
0

> <TOXCAST_E1K>
0

> <TOXCAST_PH1V2>
0

> <TOXCAST_PH2>
0

> <TOXCAST_PH3>
0

> <TOXCAST_PHASEI>
0

> <TOXCAST_PHASEII>
0

> <TOXCAST_PHASEIII>
0

> <TRIRELEASE>
0

> <TSCASURF>
0

> <UJIBADE>
0

> <ATHENSSUS>
0

> <UATHTARGETS>
0

$$$$
558655
  Mrv1611109291614192D          

  0  0  0     0  0            999 V3000
M  V30 BEGIN CTAB
M  V30 COUNTS 12 13 0 0 0
M  V30 BEGIN ATOM
M  V30 1 N 0.5026 -1.4419 0 0
M  V30 2 C 0.5026 0.0981 0 0
M  V30 3 C 1.8363 0.8681 0 0
M  V30 4 C 1.8363 2.4081 0 0
M  V30 5 C 3.1699 3.1781 0 0
M  V30 6 C 4.5036 2.4081 0 0
M  V30 7 C 4.5036 0.8681 0 0
M  V30 8 C 3.1699 0.0981 0 0
M  V30 9 C 1.2726 -2.7756 0 0
M  V30 10 C -0.2674 -2.7756 0 0
M  V30 11 C -1.6011 -3.5456 0 0
M  V30 12 N -2.9348 -4.3156 0 0
M  V30 END ATOM
M  V30 BEGIN BOND
M  V30 1 1 1 2
M  V30 2 1 2 3
M  V30 3 2 3 4
M  V30 4 1 4 5
M  V30 5 1 5 6
M  V30 6 1 6 7
M  V30 7 1 7 8
M  V30 8 1 8 3
M  V30 9 1 1 9
M  V30 10 1 9 10
M  V30 11 1 10 1
M  V30 12 1 10 11
M  V30 13 3 11 12
M  V30 END BOND
M  V30 END CTAB
M  END

> <INPUT>
C10H14N2

> <FOUND_BY>
MS Ready Formula

> <DTXCID_INDIVIDUAL_COMPONENT>
DTXCID00866446

> <FORMULA_INDIVIDUAL_COMPONENT>
C10H14N2

> <SMILES_INDIVIDUAL_COMPONENT>
N#CC1CN1CC1=CCCCC1

> <MAPPED_DTXSID>
DTXSID20607898

> <PREFERRED_NAME_DTXSID>
1-[(Cyclohex-1-en-1-yl)methyl]aziridine-2-carbonitrile

> <CASRN_DTXSID>
75984-78-0

> <FORMULA_MAPPED_DTXSID>
C10H14N2

> <SMILES_MAPPED_DTXSID>
N#CC1CN1CC1=CCCCC1

> <MS_READY_SMILES>
N#CC1CN1CC1=CCCCC1

> <INCHI_STRING_DTXCID>
InChI=1S/C10H14N2/c11-6-10-8-12(10)7-9-4-2-1-3-5-9/h4,10H,1-3,5,7-8H2

> <INCHIKEY_DTXCID>
NGYSMPWNVYTSDR-UHFFFAOYSA-N

> <MONOISOTOPIC_MASS_DTXCID>
162.115698459

> <EXPOCAST_MEDIAN_EXPOSURE_PREDICTION_MG/KG-BW/DAY>
-

> <EXPOCAST>
0

> <NHANES>
0

> <DATA_SOURCES>
1

> <TOXVAL_DATA>
0

> <TOXCAST_PERCENT_ACTIVE>
-

> <TOXCAST_NUMBER_OF_ASSAYS/TOTAL>
-

> <NUMBER_OF_PUBMED_ARTICLES>
-

> <PUBCHEM_DATA_SOURCES>
7

> <CPDAT_COUNT>
-

> <ATMOSPHERIC_HYDROXYLATION_RATE_(AOH)_CM3/MOLECULE*SEC_OPERA_PRED>
8.06397e-11

> <BIOCONCENTRATION_FACTOR_OPERA_PRED>
7.28136

> <BIODEGRADATION_HALF_LIFE_DAYS_DAYS_OPERA_PRED>
3.53565

> <BOILING_POINT_DEGC_OPERA_PRED>
273.695

> <HENRYS_LAW_ATM-M3/MOLE_OPERA_PRED>
6.29762e-08

> <OPERA_KM_DAYS_OPERA_PRED>
0.927126

> <OCTANOL_AIR_PARTITION_COEFF_LOGKOA_OPERA_PRED>
5.78666

> <SOIL_ADSORPTION_COEFFICIENT_KOC_L/KG_OPERA_PRED>
191.744

> <OCTANOL_WATER_PARTITION_LOGP_OPERA_PRED>
1.01646

> <MELTING_POINT_DEGC_OPERA_PRED>
26.3273

> <VAPOR_PRESSURE_MMHG_OPERA_PRED>
0.00223815

> <WATER_SOLUBILITY_MOL/L_OPERA_PRED>
0.485185

> <TEST_BCF_TEST_PRED>
-

> <BOILING_POINT_DEGC_TEST_PRED>
-

> <DENSITY_G/CM^3_TEST_PRED>
1.05

> <FLASH_POINT_DEGC_TEST_PRED>
145.357

> <MELTING_POINT_DEGC_TEST_PRED>
16.095

> <SURFACE_TENSION_DYN/CM_TEST_PRED>
-

> <THERMAL_CONDUCTIVITY_MW/(M*K)_TEST_PRED>
-

> <VISCOSITY_CP_CP_TEST_PRED>
-

> <VAPOR_PRESSURE_MMHG_TEST_PRED>
-

> <WATER_SOLUBILITY_MOL/L_TEST_PRED>
-

> <AEGLVALUES>
0

> <ALGALTOX>
0

> <ARCHEMICALS>
0

> <ATSDRLST>
0

> <BISPHENOLS>
0

> <OEHHA>
0

> <CERAPP>
0

> <FUNNAMES>
0

> <KWRSJERPS>
0

> <EPACONS>
0

> <IRIS>
0

> <EPAHFR>
0

> <EUCOSMETICS>
0

> <FRENCHLIST>
0

> <HEROMAP>
0

> <ITNANTIBIOTIC>
0

> <KEMIMARKET>
0

> <MASSBANKREF>
0

> <MASSBANKEUSP>
0

> <NEMILIST>
0

> <NATADB>
0

> <NIOSHIDLH>
0

> <NIOSHICSC>
0

> <NIOSHNPG>
0

> <NIOSHSKIN>
0

> <NORMANCT15>
0

> <SFISHFLUORO>
0

> <NORMANPRI>
0

> <NORMANEWS>
0

> <PFASTRIER>
0

> <SWISSPHARMA>
0

> <PPRTVWEB>
0

> <STOCKHOLM>
0

> <STOFFIDENT>
0

> <SCDM>
0

> <EAWAGSURF>
0

> <SWISSPEST>
0

> <TOX21SL>
0

> <TOXCAST>
0

> <TOXCAST_E1K>
0

> <TOXCAST_PH1V2>
0

> <TOXCAST_PH2>
0

> <TOXCAST_PH3>
0

> <TOXCAST_PHASEI>
0

> <TOXCAST_PHASEII>
0

> <TOXCAST_PHASEIII>
0

> <TRIRELEASE>
0

> <TSCASURF>
0

> <UJIBADE>
0

> <ATHENSSUS>
0

> <UATHTARGETS>
0

$$$$
558674
  Mrv1611109291614192D          

  0  0  0     0  0            999 V3000
M  V30 BEGIN CTAB
M  V30 COUNTS 14 16 0 0 0
M  V30 BEGIN ATOM
M  V30 1 N -2.3571 1.1648 0 0
M  V30 2 C -3.8971 1.1648 0 0
M  V30 3 C -3.1271 2.4985 0 0
M  V30 4 C -3.1271 4.0385 0 0
M  V30 5 N -3.1271 5.5784 0 0
M  V30 6 C -1.0234 0.3948 0 0
M  V30 7 C -1.0234 -1.1452 0 0
M  V30 8 C 0.3103 -1.9152 0 0
M  V30 9 H 0.3103 -3.4552 0 0
M  V30 10 C 1.644 -1.1452 0 0
M  V30 11 C 1.644 0.3948 0 0
M  V30 12 C 0.3103 1.1648 0 0
M  V30 13 H 0.3103 2.7048 0 0
M  V30 14 C 0.6953 -0.3752 0 0
M  V30 END ATOM
M  V30 BEGIN BOND
M  V30 1 1 1 2
M  V30 2 1 2 3
M  V30 3 1 3 1
M  V30 4 1 3 4
M  V30 5 3 4 5
M  V30 6 1 1 6
M  V30 7 1 6 7
M  V30 8 1 7 8
M  V30 9 1 8 9
M  V30 10 1 8 10
M  V30 11 1 10 11
M  V30 12 1 11 12
M  V30 13 1 12 6
M  V30 14 1 12 13
M  V30 15 1 12 14
M  V30 16 1 14 8
M  V30 END BOND
M  V30 END CTAB
M  END

> <INPUT>
C10H14N2

> <FOUND_BY>
MS Ready Formula

> <DTXCID_INDIVIDUAL_COMPONENT>
DTXCID20866463

> <FORMULA_INDIVIDUAL_COMPONENT>
C10H14N2

> <SMILES_INDIVIDUAL_COMPONENT>
[H]C12CCC([H])(C1)C(C2)N1CC1C#N

> <MAPPED_DTXSID>
DTXSID00607917

> <PREFERRED_NAME_DTXSID>
1-(Bicyclo[2.2.1]heptan-2-yl)aziridine-2-carbonitrile

> <CASRN_DTXSID>
75985-43-2

> <FORMULA_MAPPED_DTXSID>
C10H14N2

> <SMILES_MAPPED_DTXSID>
[H]C12CCC([H])(C1)C(C2)N1CC1C#N

> <MS_READY_SMILES>
[H]C12CCC([H])(C1)C(C2)N1CC1C#N

> <INCHI_STRING_DTXCID>
InChI=1S/C10H14N2/c11-5-9-6-12(9)10-4-7-1-2-8(10)3-7/h7-10H,1-4,6H2

> <INCHIKEY_DTXCID>
VCJFNPJTTIARTR-UHFFFAOYSA-N

> <MONOISOTOPIC_MASS_DTXCID>
162.115698459

> <EXPOCAST_MEDIAN_EXPOSURE_PREDICTION_MG/KG-BW/DAY>
-

> <EXPOCAST>
0

> <NHANES>
0

> <DATA_SOURCES>
1

> <TOXVAL_DATA>
0

> <TOXCAST_PERCENT_ACTIVE>
-

> <TOXCAST_NUMBER_OF_ASSAYS/TOTAL>
-

> <NUMBER_OF_PUBMED_ARTICLES>
-

> <PUBCHEM_DATA_SOURCES>
6

> <CPDAT_COUNT>
-

> <ATMOSPHERIC_HYDROXYLATION_RATE_(AOH)_CM3/MOLECULE*SEC_OPERA_PRED>
2.74162e-11

> <BIOCONCENTRATION_FACTOR_OPERA_PRED>
8.44267

> <BIODEGRADATION_HALF_LIFE_DAYS_DAYS_OPERA_PRED>
3.55675

> <BOILING_POINT_DEGC_OPERA_PRED>
271.352

> <HENRYS_LAW_ATM-M3/MOLE_OPERA_PRED>
7.69974e-07

> <OPERA_KM_DAYS_OPERA_PRED>
1.85958

> <OCTANOL_AIR_PARTITION_COEFF_LOGKOA_OPERA_PRED>
5.77162

> <SOIL_ADSORPTION_COEFFICIENT_KOC_L/KG_OPERA_PRED>
172.092

> <OCTANOL_WATER_PARTITION_LOGP_OPERA_PRED>
1.15556

> <MELTING_POINT_DEGC_OPERA_PRED>
84.5893

> <VAPOR_PRESSURE_MMHG_OPERA_PRED>
0.0247975

> <WATER_SOLUBILITY_MOL/L_OPERA_PRED>
0.491966

> <TEST_BCF_TEST_PRED>
-

> <BOILING_POINT_DEGC_TEST_PRED>
-

> <DENSITY_G/CM^3_TEST_PRED>
1.176

> <FLASH_POINT_DEGC_TEST_PRED>
126.916

> <MELTING_POINT_DEGC_TEST_PRED>
47.116

> <SURFACE_TENSION_DYN/CM_TEST_PRED>
-

> <THERMAL_CONDUCTIVITY_MW/(M*K)_TEST_PRED>
-

> <VISCOSITY_CP_CP_TEST_PRED>
-

> <VAPOR_PRESSURE_MMHG_TEST_PRED>
-

> <WATER_SOLUBILITY_MOL/L_TEST_PRED>
-

> <AEGLVALUES>
0

> <ALGALTOX>
0

> <ARCHEMICALS>
0

> <ATSDRLST>
0

> <BISPHENOLS>
0

> <OEHHA>
0

> <CERAPP>
0

> <FUNNAMES>
0

> <KWRSJERPS>
0

> <EPACONS>
0

> <IRIS>
0

> <EPAHFR>
0

> <EUCOSMETICS>
0

> <FRENCHLIST>
0

> <HEROMAP>
0

> <ITNANTIBIOTIC>
0

> <KEMIMARKET>
0

> <MASSBANKREF>
0

> <MASSBANKEUSP>
0

> <NEMILIST>
0

> <NATADB>
0

> <NIOSHIDLH>
0

> <NIOSHICSC>
0

> <NIOSHNPG>
0

> <NIOSHSKIN>
0

> <NORMANCT15>
0

> <SFISHFLUORO>
0

> <NORMANPRI>
0

> <NORMANEWS>
0

> <PFASTRIER>
0

> <SWISSPHARMA>
0

> <PPRTVWEB>
0

> <STOCKHOLM>
0

> <STOFFIDENT>
0

> <SCDM>
0

> <EAWAGSURF>
0

> <SWISSPEST>
0

> <TOX21SL>
0

> <TOXCAST>
0

> <TOXCAST_E1K>
0

> <TOXCAST_PH1V2>
0

> <TOXCAST_PH2>
0

> <TOXCAST_PH3>
0

> <TOXCAST_PHASEI>
0

> <TOXCAST_PHASEII>
0

> <TOXCAST_PHASEIII>
0

> <TRIRELEASE>
0

> <TSCASURF>
0

> <UJIBADE>
0

> <ATHENSSUS>
0

> <UATHTARGETS>
0

$$$$

  Mrv1533009301518332D          

  0  0  0     0  0            999 V3000
M  V30 BEGIN CTAB
M  V30 COUNTS 12 13 0 0 0
M  V30 BEGIN ATOM
M  V30 1 N 4.4137 2.1338 0 0
M  V30 2 N 4.4137 -4.0262 0 0
M  V30 3 C 5.1837 4.5037 0 0
M  V30 4 C 3.6437 4.5037 0 0
M  V30 5 C 5.6595 3.0391 0 0
M  V30 6 C 3.1679 3.0391 0 0
M  V30 7 C 4.4137 0.5938 0 0
M  V30 8 C 3.08 -0.1762 0 0
M  V30 9 C 5.7475 -0.1762 0 0
M  V30 10 C 3.08 -1.7162 0 0
M  V30 11 C 5.7475 -1.7162 0 0
M  V30 12 C 4.4137 -2.4862 0 0
M  V30 END ATOM
M  V30 BEGIN BOND
M  V30 1 1 1 5
M  V30 2 1 1 6
M  V30 3 1 1 7
M  V30 4 1 2 12
M  V30 5 1 3 4
M  V30 6 1 3 5
M  V30 7 1 4 6
M  V30 8 2 7 8
M  V30 9 1 7 9
M  V30 10 1 8 10
M  V30 11 2 9 11
M  V30 12 2 10 12
M  V30 13 1 11 12
M  V30 END BOND
M  V30 END CTAB
M  END

> <INPUT>
C10H14N2

> <FOUND_BY>
MS Ready Formula

> <DTXCID_INDIVIDUAL_COMPONENT>
DTXCID40306674

> <FORMULA_INDIVIDUAL_COMPONENT>
C10H14N2

> <SMILES_INDIVIDUAL_COMPONENT>
NC1=CC=C(C=C1)N1CCCC1

> <MAPPED_DTXSID>
DTXSID40610647

> <PREFERRED_NAME_DTXSID>
4-(Pyrrolidin-1-yl)aniline--hydrogen chloride (1/2)

> <CASRN_DTXSID>
163260-77-3

> <FORMULA_MAPPED_DTXSID>
C10H16Cl2N2

> <SMILES_MAPPED_DTXSID>
Cl.Cl.NC1=CC=C(C=C1)N1CCCC1

> <MS_READY_SMILES>
NC1=CC=C(C=C1)N1CCCC1

> <INCHI_STRING_DTXCID>
InChI=1S/C10H14N2/c11-9-3-5-10(6-4-9)12-7-1-2-8-12/h3-6H,1-2,7-8,11H2

> <INCHIKEY_DTXCID>
URAARCWOADCWLA-UHFFFAOYSA-N

> <MONOISOTOPIC_MASS_DTXCID>
162.115698459

> <EXPOCAST_MEDIAN_EXPOSURE_PREDICTION_MG/KG-BW/DAY>
-

> <EXPOCAST>
0

> <NHANES>
0

> <DATA_SOURCES>
1

> <TOXVAL_DATA>
0

> <TOXCAST_PERCENT_ACTIVE>
-

> <TOXCAST_NUMBER_OF_ASSAYS/TOTAL>
-

> <NUMBER_OF_PUBMED_ARTICLES>
-

> <PUBCHEM_DATA_SOURCES>
40

> <CPDAT_COUNT>
-

> <ATMOSPHERIC_HYDROXYLATION_RATE_(AOH)_CM3/MOLECULE*SEC_OPERA_PRED>
1.74149e-11

> <BIOCONCENTRATION_FACTOR_OPERA_PRED>
7.46953

> <BIODEGRADATION_HALF_LIFE_DAYS_DAYS_OPERA_PRED>
3.7529

> <BOILING_POINT_DEGC_OPERA_PRED>
308.592

> <HENRYS_LAW_ATM-M3/MOLE_OPERA_PRED>
1.63344e-07

> <OPERA_KM_DAYS_OPERA_PRED>
0.158686

> <OCTANOL_AIR_PARTITION_COEFF_LOGKOA_OPERA_PRED>
8.77789

> <SOIL_ADSORPTION_COEFFICIENT_KOC_L/KG_OPERA_PRED>
183.739

> <OCTANOL_WATER_PARTITION_LOGP_OPERA_PRED>
1.08695

> <MELTING_POINT_DEGC_OPERA_PRED>
141.207

> <VAPOR_PRESSURE_MMHG_OPERA_PRED>
9.95496e-05

> <WATER_SOLUBILITY_MOL/L_OPERA_PRED>
0.244358

> <TEST_BCF_TEST_PRED>
17.1002

> <BOILING_POINT_DEGC_TEST_PRED>
286.548

> <DENSITY_G/CM^3_TEST_PRED>
1.064

> <FLASH_POINT_DEGC_TEST_PRED>
144.879

> <MELTING_POINT_DEGC_TEST_PRED>
66.394

> <SURFACE_TENSION_DYN/CM_TEST_PRED>
-

> <THERMAL_CONDUCTIVITY_MW/(M*K)_TEST_PRED>
166.204

> <VISCOSITY_CP_CP_TEST_PRED>
6.60693

> <VAPOR_PRESSURE_MMHG_TEST_PRED>
0.000381944

> <WATER_SOLUBILITY_MOL/L_TEST_PRED>
0.0128233

> <AEGLVALUES>
0

> <ALGALTOX>
0

> <ARCHEMICALS>
0

> <ATSDRLST>
0

> <BISPHENOLS>
0

> <OEHHA>
0

> <CERAPP>
0

> <FUNNAMES>
0

> <KWRSJERPS>
0

> <EPACONS>
0

> <IRIS>
0

> <EPAHFR>
0

> <EUCOSMETICS>
0

> <FRENCHLIST>
0

> <HEROMAP>
0

> <ITNANTIBIOTIC>
0

> <KEMIMARKET>
0

> <MASSBANKREF>
0

> <MASSBANKEUSP>
0

> <NEMILIST>
0

> <NATADB>
0

> <NIOSHIDLH>
0

> <NIOSHICSC>
0

> <NIOSHNPG>
0

> <NIOSHSKIN>
0

> <NORMANCT15>
0

> <SFISHFLUORO>
0

> <NORMANPRI>
0

> <NORMANEWS>
0

> <PFASTRIER>
0

> <SWISSPHARMA>
0

> <PPRTVWEB>
0

> <STOCKHOLM>
0

> <STOFFIDENT>
0

> <SCDM>
0

> <EAWAGSURF>
0

> <SWISSPEST>
0

> <TOX21SL>
0

> <TOXCAST>
0

> <TOXCAST_E1K>
0

> <TOXCAST_PH1V2>
0

> <TOXCAST_PH2>
0

> <TOXCAST_PH3>
0

> <TOXCAST_PHASEI>
0

> <TOXCAST_PHASEII>
0

> <TOXCAST_PHASEIII>
0

> <TRIRELEASE>
0

> <TSCASURF>
0

> <UJIBADE>
0

> <ATHENSSUS>
0

> <UATHTARGETS>
0

$$$$

  Mrv1533009301520002D          

  0  0  0     0  0            999 V3000
M  V30 BEGIN CTAB
M  V30 COUNTS 12 13 0 0 1
M  V30 BEGIN ATOM
M  V30 1 N 10.6801 1.2529 0 0
M  V30 2 N 3.9069 -1.0892 0 0
M  V30 3 C 9.2848 -1.1428 0 0
M  V30 4 C 10.6801 -0.3513 0 0
M  V30 5 C 9.2848 2.044 0 0
M  V30 6 C 7.9081 -0.3192 0 0
M  V30 7 C 7.9081 1.2208 0 0
M  V30 8 C 6.5744 -1.0892 0 0
M  V30 9 C 6.5744 1.9908 0 0
M  V30 10 C 12.0109 2.0279 0 0
M  V30 11 C 5.2407 -0.3192 0 0
M  V30 12 C 5.2407 1.2208 0 0
M  V30 END ATOM
M  V30 BEGIN BOND
M  V30 1 1 1 4
M  V30 2 1 1 5
M  V30 3 1 1 10
M  V30 4 1 2 11
M  V30 5 1 3 4
M  V30 6 1 3 6
M  V30 7 1 5 7
M  V30 8 2 6 7
M  V30 9 1 6 8
M  V30 10 1 7 9
M  V30 11 2 8 11
M  V30 12 2 9 12
M  V30 13 1 11 12
M  V30 END BOND
M  V30 END CTAB
M  END

> <INPUT>
C10H14N2

> <FOUND_BY>
MS Ready Formula

> <DTXCID_INDIVIDUAL_COMPONENT>
DTXCID50564622

> <FORMULA_INDIVIDUAL_COMPONENT>
C10H14N2

> <SMILES_INDIVIDUAL_COMPONENT>
CN1CCC2=C(C1)C=CC(N)=C2

> <MAPPED_DTXSID>
DTXSID10613867

> <PREFERRED_NAME_DTXSID>
2-Methyl-1,2,3,4-tetrahydroisoquinolin-6-amine

> <CASRN_DTXSID>
14097-37-1

> <FORMULA_MAPPED_DTXSID>
C10H14N2

> <SMILES_MAPPED_DTXSID>
CN1CCC2=C(C1)C=CC(N)=C2

> <MS_READY_SMILES>
CN1CCC2=C(C1)C=CC(N)=C2

> <INCHI_STRING_DTXCID>
InChI=1S/C10H14N2/c1-12-5-4-8-6-10(11)3-2-9(8)7-12/h2-3,6H,4-5,7,11H2,1H3

> <INCHIKEY_DTXCID>
PWHRVVMNFQGSJQ-UHFFFAOYSA-N

> <MONOISOTOPIC_MASS_DTXCID>
162.115698459

> <EXPOCAST_MEDIAN_EXPOSURE_PREDICTION_MG/KG-BW/DAY>
-

> <EXPOCAST>
0

> <NHANES>
0

> <DATA_SOURCES>
1

> <TOXVAL_DATA>
0

> <TOXCAST_PERCENT_ACTIVE>
-

> <TOXCAST_NUMBER_OF_ASSAYS/TOTAL>
-

> <NUMBER_OF_PUBMED_ARTICLES>
-

> <PUBCHEM_DATA_SOURCES>
15

> <CPDAT_COUNT>
-

> <ATMOSPHERIC_HYDROXYLATION_RATE_(AOH)_CM3/MOLECULE*SEC_OPERA_PRED>
1.79367e-11

> <BIOCONCENTRATION_FACTOR_OPERA_PRED>
6.02371

> <BIODEGRADATION_HALF_LIFE_DAYS_DAYS_OPERA_PRED>
2.7781

> <BOILING_POINT_DEGC_OPERA_PRED>
284.786

> <HENRYS_LAW_ATM-M3/MOLE_OPERA_PRED>
2.64275e-09

> <OPERA_KM_DAYS_OPERA_PRED>
0.393271

> <OCTANOL_AIR_PARTITION_COEFF_LOGKOA_OPERA_PRED>
8.51628

> <SOIL_ADSORPTION_COEFFICIENT_KOC_L/KG_OPERA_PRED>
152.658

> <OCTANOL_WATER_PARTITION_LOGP_OPERA_PRED>
1.33471

> <MELTING_POINT_DEGC_OPERA_PRED>
126.993

> <VAPOR_PRESSURE_MMHG_OPERA_PRED>
0.00010991

> <WATER_SOLUBILITY_MOL/L_OPERA_PRED>
0.0132838

> <TEST_BCF_TEST_PRED>
6.66807

> <BOILING_POINT_DEGC_TEST_PRED>
268.399

> <DENSITY_G/CM^3_TEST_PRED>
1.081

> <FLASH_POINT_DEGC_TEST_PRED>
132.954

> <MELTING_POINT_DEGC_TEST_PRED>
64.611

> <SURFACE_TENSION_DYN/CM_TEST_PRED>
-

> <THERMAL_CONDUCTIVITY_MW/(M*K)_TEST_PRED>
160.999

> <VISCOSITY_CP_CP_TEST_PRED>
9.68278

> <VAPOR_PRESSURE_MMHG_TEST_PRED>
0.000912011

> <WATER_SOLUBILITY_MOL/L_TEST_PRED>
0.0250035

> <AEGLVALUES>
0

> <ALGALTOX>
0

> <ARCHEMICALS>
0

> <ATSDRLST>
0

> <BISPHENOLS>
0

> <OEHHA>
0

> <CERAPP>
0

> <FUNNAMES>
0

> <KWRSJERPS>
0

> <EPACONS>
0

> <IRIS>
0

> <EPAHFR>
0

> <EUCOSMETICS>
0

> <FRENCHLIST>
0

> <HEROMAP>
0

> <ITNANTIBIOTIC>
0

> <KEMIMARKET>
0

> <MASSBANKREF>
0

> <MASSBANKEUSP>
0

> <NEMILIST>
0

> <NATADB>
0

> <NIOSHIDLH>
0

> <NIOSHICSC>
0

> <NIOSHNPG>
0

> <NIOSHSKIN>
0

> <NORMANCT15>
0

> <SFISHFLUORO>
0

> <NORMANPRI>
0

> <NORMANEWS>
0

> <PFASTRIER>
0

> <SWISSPHARMA>
0

> <PPRTVWEB>
0

> <STOCKHOLM>
0

> <STOFFIDENT>
0

> <SCDM>
0

> <EAWAGSURF>
0

> <SWISSPEST>
0

> <TOX21SL>
0

> <TOXCAST>
0

> <TOXCAST_E1K>
0

> <TOXCAST_PH1V2>
0

> <TOXCAST_PH2>
0

> <TOXCAST_PH3>
0

> <TOXCAST_PHASEI>
0

> <TOXCAST_PHASEII>
0

> <TOXCAST_PHASEIII>
0

> <TRIRELEASE>
0

> <TSCASURF>
0

> <UJIBADE>
0

> <ATHENSSUS>
0

> <UATHTARGETS>
0

$$$$

  Mrv1533009301520042D          

  0  0  0     0  0            999 V3000
M  V30 BEGIN CTAB
M  V30 COUNTS 12 13 0 0 0
M  V30 BEGIN ATOM
M  V30 1 N 5.7475 2.96 0 0
M  V30 2 N 4.4137 -3.9702 0 0
M  V30 3 C 7.235 2.5614 0 0
M  V30 4 C 6.1462 4.4477 0 0
M  V30 5 C 7.6335 4.049 0 0
M  V30 6 C 4.4137 2.19 0 0
M  V30 7 C 4.4137 0.65 0 0
M  V30 8 C 3.08 -0.1202 0 0
M  V30 9 C 5.7475 -0.1202 0 0
M  V30 10 C 3.08 -1.6602 0 0
M  V30 11 C 5.7475 -1.6602 0 0
M  V30 12 C 4.4137 -2.4302 0 0
M  V30 END ATOM
M  V30 BEGIN BOND
M  V30 1 1 1 3
M  V30 2 1 1 4
M  V30 3 1 1 6
M  V30 4 1 2 12
M  V30 5 1 3 5
M  V30 6 1 4 5
M  V30 7 1 6 7
M  V30 8 2 7 8
M  V30 9 1 7 9
M  V30 10 1 8 10
M  V30 11 2 9 11
M  V30 12 2 10 12
M  V30 13 1 11 12
M  V30 END BOND
M  V30 END CTAB
M  END

> <INPUT>
C10H14N2

> <FOUND_BY>
MS Ready Formula

> <DTXCID_INDIVIDUAL_COMPONENT>
DTXCID70577330

> <FORMULA_INDIVIDUAL_COMPONENT>
C10H14N2

> <SMILES_INDIVIDUAL_COMPONENT>
NC1=CC=C(CN2CCC2)C=C1

> <MAPPED_DTXSID>
DTXSID50626577

> <PREFERRED_NAME_DTXSID>
4-[(Azetidin-1-yl)methyl]aniline

> <CASRN_DTXSID>
263339-26-0

> <FORMULA_MAPPED_DTXSID>
C10H14N2

> <SMILES_MAPPED_DTXSID>
NC1=CC=C(CN2CCC2)C=C1

> <MS_READY_SMILES>
NC1=CC=C(CN2CCC2)C=C1

> <INCHI_STRING_DTXCID>
InChI=1S/C10H14N2/c11-10-4-2-9(3-5-10)8-12-6-1-7-12/h2-5H,1,6-8,11H2

> <INCHIKEY_DTXCID>
MQWIENFKSMUTOO-UHFFFAOYSA-N

> <MONOISOTOPIC_MASS_DTXCID>
162.115698459

> <EXPOCAST_MEDIAN_EXPOSURE_PREDICTION_MG/KG-BW/DAY>
-

> <EXPOCAST>
0

> <NHANES>
0

> <DATA_SOURCES>
1

> <TOXVAL_DATA>
0

> <TOXCAST_PERCENT_ACTIVE>
-

> <TOXCAST_NUMBER_OF_ASSAYS/TOTAL>
-

> <NUMBER_OF_PUBMED_ARTICLES>
-

> <PUBCHEM_DATA_SOURCES>
14

> <CPDAT_COUNT>
-

> <ATMOSPHERIC_HYDROXYLATION_RATE_(AOH)_CM3/MOLECULE*SEC_OPERA_PRED>
1.79349e-11

> <BIOCONCENTRATION_FACTOR_OPERA_PRED>
9.27102

> <BIODEGRADATION_HALF_LIFE_DAYS_DAYS_OPERA_PRED>
3.32932

> <BOILING_POINT_DEGC_OPERA_PRED>
293.986

> <HENRYS_LAW_ATM-M3/MOLE_OPERA_PRED>
9.30549e-10

> <OPERA_KM_DAYS_OPERA_PRED>
0.134524

> <OCTANOL_AIR_PARTITION_COEFF_LOGKOA_OPERA_PRED>
8.52682

> <SOIL_ADSORPTION_COEFFICIENT_KOC_L/KG_OPERA_PRED>
162.851

> <OCTANOL_WATER_PARTITION_LOGP_OPERA_PRED>
1.28194

> <MELTING_POINT_DEGC_OPERA_PRED>
64.0666

> <VAPOR_PRESSURE_MMHG_OPERA_PRED>
0.000116441

> <WATER_SOLUBILITY_MOL/L_OPERA_PRED>
0.833436

> <TEST_BCF_TEST_PRED>
13.6458

> <BOILING_POINT_DEGC_TEST_PRED>
288.556

> <DENSITY_G/CM^3_TEST_PRED>
1.084

> <FLASH_POINT_DEGC_TEST_PRED>
112.67

> <MELTING_POINT_DEGC_TEST_PRED>
76.03

> <SURFACE_TENSION_DYN/CM_TEST_PRED>
-

> <THERMAL_CONDUCTIVITY_MW/(M*K)_TEST_PRED>
165.482

> <VISCOSITY_CP_CP_TEST_PRED>
7.49894

> <VAPOR_PRESSURE_MMHG_TEST_PRED>
0.00112202

> <WATER_SOLUBILITY_MOL/L_TEST_PRED>
0.0147571

> <AEGLVALUES>
0

> <ALGALTOX>
0

> <ARCHEMICALS>
0

> <ATSDRLST>
0

> <BISPHENOLS>
0

> <OEHHA>
0

> <CERAPP>
0

> <FUNNAMES>
0

> <KWRSJERPS>
0

> <EPACONS>
0

> <IRIS>
0

> <EPAHFR>
0

> <EUCOSMETICS>
0

> <FRENCHLIST>
0

> <HEROMAP>
0

> <ITNANTIBIOTIC>
0

> <KEMIMARKET>
0

> <MASSBANKREF>
0

> <MASSBANKEUSP>
0

> <NEMILIST>
0

> <NATADB>
0

> <NIOSHIDLH>
0

> <NIOSHICSC>
0

> <NIOSHNPG>
0

> <NIOSHSKIN>
0

> <NORMANCT15>
0

> <SFISHFLUORO>
0

> <NORMANPRI>
0

> <NORMANEWS>
0

> <PFASTRIER>
0

> <SWISSPHARMA>
0

> <PPRTVWEB>
0

> <STOCKHOLM>
0

> <STOFFIDENT>
0

> <SCDM>
0

> <EAWAGSURF>
0

> <SWISSPEST>
0

> <TOX21SL>
0

> <TOXCAST>
0

> <TOXCAST_E1K>
0

> <TOXCAST_PH1V2>
0

> <TOXCAST_PH2>
0

> <TOXCAST_PH3>
0

> <TOXCAST_PHASEI>
0

> <TOXCAST_PHASEII>
0

> <TOXCAST_PHASEIII>
0

> <TRIRELEASE>
0

> <TSCASURF>
0

> <UJIBADE>
0

> <ATHENSSUS>
0

> <UATHTARGETS>
0

$$$$
577497
  Mrv1611109291614472D          

  0  0  0     0  0            999 V3000
M  V30 BEGIN CTAB
M  V30 COUNTS 12 11 0 0 0
M  V30 BEGIN ATOM
M  V30 1 N -4.2405 -7.1224 0 0
M  V30 2 C -2.9068 -6.3524 0 0
M  V30 3 C -1.5731 -5.5824 0 0
M  V30 4 C -1.5731 -4.0425 0 0
M  V30 5 C -0.2395 -6.3524 0 0
M  V30 6 C 1.0942 -5.5824 0 0
M  V30 7 C 1.0942 -4.0425 0 0
M  V30 8 C 2.4279 -6.3524 0 0
M  V30 9 C 3.7616 -5.5824 0 0
M  V30 10 C 5.0952 -6.3524 0 0
M  V30 11 C 6.4288 -5.5824 0 0
M  V30 12 N 7.7625 -4.8124 0 0
M  V30 END ATOM
M  V30 BEGIN BOND
M  V30 1 3 1 2
M  V30 2 1 2 3
M  V30 3 1 3 4
M  V30 4 1 3 5
M  V30 5 1 5 6
M  V30 6 2 6 7
M  V30 7 1 6 8
M  V30 8 1 8 9
M  V30 9 1 9 10
M  V30 10 1 10 11
M  V30 11 3 11 12
M  V30 END BOND
M  V30 END CTAB
M  END

> <INPUT>
C10H14N2

> <FOUND_BY>
MS Ready Formula

> <DTXCID_INDIVIDUAL_COMPONENT>
DTXCID40870709

> <FORMULA_INDIVIDUAL_COMPONENT>
C10H14N2

> <SMILES_INDIVIDUAL_COMPONENT>
CC(CC(=C)CCCC#N)C#N

> <MAPPED_DTXSID>
DTXSID00626744

> <PREFERRED_NAME_DTXSID>
2-Methyl-4-methylideneoctanedinitrile

> <CASRN_DTXSID>
56827-77-1

> <FORMULA_MAPPED_DTXSID>
C10H14N2

> <SMILES_MAPPED_DTXSID>
CC(CC(=C)CCCC#N)C#N

> <MS_READY_SMILES>
CC(CC(=C)CCCC#N)C#N

> <INCHI_STRING_DTXCID>
InChI=1S/C10H14N2/c1-9(5-3-4-6-11)7-10(2)8-12/h10H,1,3-5,7H2,2H3

> <INCHIKEY_DTXCID>
TYHFRIJIMIEVMH-UHFFFAOYSA-N

> <MONOISOTOPIC_MASS_DTXCID>
162.115698459

> <EXPOCAST_MEDIAN_EXPOSURE_PREDICTION_MG/KG-BW/DAY>
-

> <EXPOCAST>
0

> <NHANES>
0

> <DATA_SOURCES>
1

> <TOXVAL_DATA>
0

> <TOXCAST_PERCENT_ACTIVE>
-

> <TOXCAST_NUMBER_OF_ASSAYS/TOTAL>
-

> <NUMBER_OF_PUBMED_ARTICLES>
-

> <PUBCHEM_DATA_SOURCES>
7

> <CPDAT_COUNT>
-

> <ATMOSPHERIC_HYDROXYLATION_RATE_(AOH)_CM3/MOLECULE*SEC_OPERA_PRED>
1.37437e-10

> <BIOCONCENTRATION_FACTOR_OPERA_PRED>
17.2104

> <BIODEGRADATION_HALF_LIFE_DAYS_DAYS_OPERA_PRED>
3.53951

> <BOILING_POINT_DEGC_OPERA_PRED>
283.908

> <HENRYS_LAW_ATM-M3/MOLE_OPERA_PRED>
4.53438e-08

> <OPERA_KM_DAYS_OPERA_PRED>
1.28204

> <OCTANOL_AIR_PARTITION_COEFF_LOGKOA_OPERA_PRED>
5.74692

> <SOIL_ADSORPTION_COEFFICIENT_KOC_L/KG_OPERA_PRED>
219.347

> <OCTANOL_WATER_PARTITION_LOGP_OPERA_PRED>
1.03937

> <MELTING_POINT_DEGC_OPERA_PRED>
18.3803

> <VAPOR_PRESSURE_MMHG_OPERA_PRED>
0.014359

> <WATER_SOLUBILITY_MOL/L_OPERA_PRED>
0.0795035

> <TEST_BCF_TEST_PRED>
15.9956

> <BOILING_POINT_DEGC_TEST_PRED>
263.555

> <DENSITY_G/CM^3_TEST_PRED>
0.911

> <FLASH_POINT_DEGC_TEST_PRED>
120.813

> <MELTING_POINT_DEGC_TEST_PRED>
-12.995

> <SURFACE_TENSION_DYN/CM_TEST_PRED>
36.719

> <THERMAL_CONDUCTIVITY_MW/(M*K)_TEST_PRED>
-

> <VISCOSITY_CP_CP_TEST_PRED>
1.94984

> <VAPOR_PRESSURE_MMHG_TEST_PRED>
0.0124165

> <WATER_SOLUBILITY_MOL/L_TEST_PRED>
0.00493174

> <AEGLVALUES>
0

> <ALGALTOX>
0

> <ARCHEMICALS>
0

> <ATSDRLST>
0

> <BISPHENOLS>
0

> <OEHHA>
0

> <CERAPP>
0

> <FUNNAMES>
0

> <KWRSJERPS>
0

> <EPACONS>
0

> <IRIS>
0

> <EPAHFR>
0

> <EUCOSMETICS>
0

> <FRENCHLIST>
0

> <HEROMAP>
0

> <ITNANTIBIOTIC>
0

> <KEMIMARKET>
0

> <MASSBANKREF>
0

> <MASSBANKEUSP>
0

> <NEMILIST>
0

> <NATADB>
0

> <NIOSHIDLH>
0

> <NIOSHICSC>
0

> <NIOSHNPG>
0

> <NIOSHSKIN>
0

> <NORMANCT15>
0

> <SFISHFLUORO>
0

> <NORMANPRI>
0

> <NORMANEWS>
0

> <PFASTRIER>
0

> <SWISSPHARMA>
0

> <PPRTVWEB>
0

> <STOCKHOLM>
0

> <STOFFIDENT>
0

> <SCDM>
0

> <EAWAGSURF>
0

> <SWISSPEST>
0

> <TOX21SL>
0

> <TOXCAST>
0

> <TOXCAST_E1K>
0

> <TOXCAST_PH1V2>
0

> <TOXCAST_PH2>
0

> <TOXCAST_PH3>
0

> <TOXCAST_PHASEI>
0

> <TOXCAST_PHASEII>
0

> <TOXCAST_PHASEIII>
0

> <TRIRELEASE>
0

> <TSCASURF>
0

> <UJIBADE>
0

> <ATHENSSUS>
0

> <UATHTARGETS>
0

$$$$

  Mrv1533009301519002D          

  0  0  0     0  0            999 V3000
M  V30 BEGIN CTAB
M  V30 COUNTS 12 13 0 0 0
M  V30 BEGIN ATOM
M  V30 1 N 4.4137 -3.3727 0 0
M  V30 2 N 3.08 2.0175 0 0
M  V30 3 C 4.4137 -0.2927 0 0
M  V30 4 C 3.08 -1.0627 0 0
M  V30 5 C 5.7475 -1.0627 0 0
M  V30 6 C 3.08 -2.6027 0 0
M  V30 7 C 5.7475 -2.6027 0 0
M  V30 8 C 4.4137 1.2475 0 0
M  V30 9 C 5.7475 2.0175 0 0
M  V30 10 C 5.7475 3.5575 0 0
M  V30 11 C 3.08 3.5575 0 0
M  V30 12 C 4.4137 4.3275 0 0
M  V30 END ATOM
M  V30 BEGIN BOND
M  V30 1 1 1 6
M  V30 2 1 1 7
M  V30 3 1 2 8
M  V30 4 2 2 11
M  V30 5 1 3 4
M  V30 6 1 3 5
M  V30 7 1 3 8
M  V30 8 1 4 6
M  V30 9 1 5 7
M  V30 10 2 8 9
M  V30 11 1 9 10
M  V30 12 2 10 12
M  V30 13 1 11 12
M  V30 END BOND
M  V30 END CTAB
M  END

> <INPUT>
C10H14N2

> <FOUND_BY>
MS Ready Formula

> <DTXCID_INDIVIDUAL_COMPONENT>
DTXCID10389651

> <FORMULA_INDIVIDUAL_COMPONENT>
C10H14N2

> <SMILES_INDIVIDUAL_COMPONENT>
C1CC(CCN1)C1=CC=CC=N1

> <MAPPED_DTXSID>
DTXSID80629410

> <PREFERRED_NAME_DTXSID>
2-(Piperidin-4-yl)pyridine--hydrogen chloride (1/1)

> <CASRN_DTXSID>
216688-64-1

> <FORMULA_MAPPED_DTXSID>
C10H15ClN2

> <SMILES_MAPPED_DTXSID>
Cl.C1CC(CCN1)C1=CC=CC=N1

> <MS_READY_SMILES>
C1CC(CCN1)C1=CC=CC=N1

> <INCHI_STRING_DTXCID>
InChI=1S/C10H14N2/c1-2-6-12-10(3-1)9-4-7-11-8-5-9/h1-3,6,9,11H,4-5,7-8H2

> <INCHIKEY_DTXCID>
KVNQCSIGNRPHHM-UHFFFAOYSA-N

> <MONOISOTOPIC_MASS_DTXCID>
162.115698459

> <EXPOCAST_MEDIAN_EXPOSURE_PREDICTION_MG/KG-BW/DAY>
-

> <EXPOCAST>
0

> <NHANES>
0

> <DATA_SOURCES>
1

> <TOXVAL_DATA>
0

> <TOXCAST_PERCENT_ACTIVE>
-

> <TOXCAST_NUMBER_OF_ASSAYS/TOTAL>
-

> <NUMBER_OF_PUBMED_ARTICLES>
-

> <PUBCHEM_DATA_SOURCES>
21

> <CPDAT_COUNT>
-

> <ATMOSPHERIC_HYDROXYLATION_RATE_(AOH)_CM3/MOLECULE*SEC_OPERA_PRED>
2.11832e-11

> <BIOCONCENTRATION_FACTOR_OPERA_PRED>
12.5782

> <BIODEGRADATION_HALF_LIFE_DAYS_DAYS_OPERA_PRED>
2.77436

> <BOILING_POINT_DEGC_OPERA_PRED>
282.29

> <HENRYS_LAW_ATM-M3/MOLE_OPERA_PRED>
2.83931e-07

> <OPERA_KM_DAYS_OPERA_PRED>
0.222491

> <OCTANOL_AIR_PARTITION_COEFF_LOGKOA_OPERA_PRED>
8.36352

> <SOIL_ADSORPTION_COEFFICIENT_KOC_L/KG_OPERA_PRED>
123.202

> <OCTANOL_WATER_PARTITION_LOGP_OPERA_PRED>
0.897407

> <MELTING_POINT_DEGC_OPERA_PRED>
197.983

> <VAPOR_PRESSURE_MMHG_OPERA_PRED>
0.0115445

> <WATER_SOLUBILITY_MOL/L_OPERA_PRED>
0.414985

> <TEST_BCF_TEST_PRED>
12.0226

> <BOILING_POINT_DEGC_TEST_PRED>
257.718

> <DENSITY_G/CM^3_TEST_PRED>
1.034

> <FLASH_POINT_DEGC_TEST_PRED>
111.995

> <MELTING_POINT_DEGC_TEST_PRED>
62.774

> <SURFACE_TENSION_DYN/CM_TEST_PRED>
37.708

> <THERMAL_CONDUCTIVITY_MW/(M*K)_TEST_PRED>
148.882

> <VISCOSITY_CP_CP_TEST_PRED>
12.9122

> <VAPOR_PRESSURE_MMHG_TEST_PRED>
0.00462381

> <WATER_SOLUBILITY_MOL/L_TEST_PRED>
0.0395367

> <AEGLVALUES>
0

> <ALGALTOX>
0

> <ARCHEMICALS>
0

> <ATSDRLST>
0

> <BISPHENOLS>
0

> <OEHHA>
0

> <CERAPP>
0

> <FUNNAMES>
0

> <KWRSJERPS>
0

> <EPACONS>
0

> <IRIS>
0

> <EPAHFR>
0

> <EUCOSMETICS>
0

> <FRENCHLIST>
0

> <HEROMAP>
0

> <ITNANTIBIOTIC>
0

> <KEMIMARKET>
0

> <MASSBANKREF>
0

> <MASSBANKEUSP>
0

> <NEMILIST>
0

> <NATADB>
0

> <NIOSHIDLH>
0

> <NIOSHICSC>
0

> <NIOSHNPG>
0

> <NIOSHSKIN>
0

> <NORMANCT15>
0

> <SFISHFLUORO>
0

> <NORMANPRI>
0

> <NORMANEWS>
0

> <PFASTRIER>
0

> <SWISSPHARMA>
0

> <PPRTVWEB>
0

> <STOCKHOLM>
0

> <STOFFIDENT>
0

> <SCDM>
0

> <EAWAGSURF>
0

> <SWISSPEST>
0

> <TOX21SL>
0

> <TOXCAST>
0

> <TOXCAST_E1K>
0

> <TOXCAST_PH1V2>
0

> <TOXCAST_PH2>
0

> <TOXCAST_PH3>
0

> <TOXCAST_PHASEI>
0

> <TOXCAST_PHASEII>
0

> <TOXCAST_PHASEIII>
0

> <TRIRELEASE>
0

> <TSCASURF>
0

> <UJIBADE>
0

> <ATHENSSUS>
0

> <UATHTARGETS>
0

$$$$

  Mrv1611103081716422D          

  0  0  0     0  0            999 V3000
M  V30 BEGIN CTAB
M  V30 COUNTS 12 12 0 0 0
M  V30 BEGIN ATOM
M  V30 1 C -2.6674 9.2399 0 0
M  V30 2 N -1.3337 8.4699 0 0
M  V30 3 C -1.3337 6.9299 0 0
M  V30 4 C 0 6.1599 0 0
M  V30 5 C 0 4.6199 0 0
M  V30 6 C 1.3337 3.85 0 0
M  V30 7 C 1.3337 2.31 0 0
M  V30 8 C 2.6674 1.54 0 0
M  V30 9 N 2.6674 0 0 0
M  V30 10 C 1.3337 -0.77 0 0
M  V30 11 C 0 0 0 0
M  V30 12 C 0 1.54 0 0
M  V30 END ATOM
M  V30 BEGIN BOND
M  V30 1 1 1 2
M  V30 2 1 2 3
M  V30 3 1 3 4
M  V30 4 1 5 4 CFG=2
M  V30 5 2 5 6
M  V30 6 1 6 7
M  V30 7 2 7 8
M  V30 8 1 8 9
M  V30 9 2 9 10
M  V30 10 1 10 11
M  V30 11 2 11 12
M  V30 12 1 7 12
M  V30 END BOND
M  V30 END CTAB
M  END

> <INPUT>
C10H14N2

> <FOUND_BY>
MS Ready Formula

> <DTXCID_INDIVIDUAL_COMPONENT>
DTXCID80813099

> <FORMULA_INDIVIDUAL_COMPONENT>
C10H14N2

> <SMILES_INDIVIDUAL_COMPONENT>
CNCCC=CC1=CN=CC=C1

> <MAPPED_DTXSID>
DTXSID00632688

> <PREFERRED_NAME_DTXSID>
Oxalic acid--(3E)-N-methyl-4-(pyridin-3-yl)but-3-en-1-amine (1/1)

> <CASRN_DTXSID>
220662-95-3

> <FORMULA_MAPPED_DTXSID>
C12H16N2O4

> <SMILES_MAPPED_DTXSID>
OC(=O)C(O)=O.CNCC\C=C\C1=CN=CC=C1

> <MS_READY_SMILES>
OC(=O)C(O)=O,CNCCC=CC1=CN=CC=C1

> <INCHI_STRING_DTXCID>
InChI=1S/C10H14N2/c1-11-7-3-2-5-10-6-4-8-12-9-10/h2,4-6,8-9,11H,3,7H2,1H3

> <INCHIKEY_DTXCID>
JUOSGGQXEBBCJB-UHFFFAOYSA-N

> <MONOISOTOPIC_MASS_DTXCID>
162.115698459

> <EXPOCAST_MEDIAN_EXPOSURE_PREDICTION_MG/KG-BW/DAY>
-

> <EXPOCAST>
0

> <NHANES>
0

> <DATA_SOURCES>
1

> <TOXVAL_DATA>
0

> <TOXCAST_PERCENT_ACTIVE>
-

> <TOXCAST_NUMBER_OF_ASSAYS/TOTAL>
-

> <NUMBER_OF_PUBMED_ARTICLES>
-

> <PUBCHEM_DATA_SOURCES>
15

> <CPDAT_COUNT>
-

> <ATMOSPHERIC_HYDROXYLATION_RATE_(AOH)_CM3/MOLECULE*SEC_OPERA_PRED>
2.94512e-11

> <BIOCONCENTRATION_FACTOR_OPERA_PRED>
6.12449

> <BIODEGRADATION_HALF_LIFE_DAYS_DAYS_OPERA_PRED>
3.34196

> <BOILING_POINT_DEGC_OPERA_PRED>
287.968

> <HENRYS_LAW_ATM-M3/MOLE_OPERA_PRED>
2.70229e-07

> <OPERA_KM_DAYS_OPERA_PRED>
0.264566

> <OCTANOL_AIR_PARTITION_COEFF_LOGKOA_OPERA_PRED>
7.73848

> <SOIL_ADSORPTION_COEFFICIENT_KOC_L/KG_OPERA_PRED>
107.674

> <OCTANOL_WATER_PARTITION_LOGP_OPERA_PRED>
1.0373

> <MELTING_POINT_DEGC_OPERA_PRED>
94.8808

> <VAPOR_PRESSURE_MMHG_OPERA_PRED>
0.00923117

> <WATER_SOLUBILITY_MOL/L_OPERA_PRED>
4.50139

> <TEST_BCF_TEST_PRED>
11.5611

> <BOILING_POINT_DEGC_TEST_PRED>
265.195

> <DENSITY_G/CM^3_TEST_PRED>
1.032

> <FLASH_POINT_DEGC_TEST_PRED>
137.916

> <MELTING_POINT_DEGC_TEST_PRED>
82.668

> <SURFACE_TENSION_DYN/CM_TEST_PRED>
36.64

> <THERMAL_CONDUCTIVITY_MW/(M*K)_TEST_PRED>
-

> <VISCOSITY_CP_CP_TEST_PRED>
4.86407

> <VAPOR_PRESSURE_MMHG_TEST_PRED>
0.00389942

> <WATER_SOLUBILITY_MOL/L_TEST_PRED>
0.00912011

> <AEGLVALUES>
0

> <ALGALTOX>
0

> <ARCHEMICALS>
0

> <ATSDRLST>
0

> <BISPHENOLS>
0

> <OEHHA>
0

> <CERAPP>
0

> <FUNNAMES>
0

> <KWRSJERPS>
0

> <EPACONS>
0

> <IRIS>
0

> <EPAHFR>
0

> <EUCOSMETICS>
0

> <FRENCHLIST>
0

> <HEROMAP>
0

> <ITNANTIBIOTIC>
0

> <KEMIMARKET>
0

> <MASSBANKREF>
0

> <MASSBANKEUSP>
0

> <NEMILIST>
0

> <NATADB>
0

> <NIOSHIDLH>
0

> <NIOSHICSC>
0

> <NIOSHNPG>
0

> <NIOSHSKIN>
0

> <NORMANCT15>
0

> <SFISHFLUORO>
0

> <NORMANPRI>
0

> <NORMANEWS>
0

> <PFASTRIER>
0

> <SWISSPHARMA>
0

> <PPRTVWEB>
0

> <STOCKHOLM>
0

> <STOFFIDENT>
0

> <SCDM>
0

> <EAWAGSURF>
0

> <SWISSPEST>
0

> <TOX21SL>
0

> <TOXCAST>
0

> <TOXCAST_E1K>
0

> <TOXCAST_PH1V2>
0

> <TOXCAST_PH2>
0

> <TOXCAST_PH3>
0

> <TOXCAST_PHASEI>
0

> <TOXCAST_PHASEII>
0

> <TOXCAST_PHASEIII>
0

> <TRIRELEASE>
0

> <TSCASURF>
0

> <UJIBADE>
0

> <ATHENSSUS>
0

> <UATHTARGETS>
0

$$$$

  Mrv1533009301520062D          

  0  0  0     0  0            999 V3000
M  V30 BEGIN CTAB
M  V30 COUNTS 12 13 0 0 0
M  V30 BEGIN ATOM
M  V30 1 N 5.2563 0.2934 0 0
M  V30 2 N 3.9185 1.0659 0 0
M  V30 3 C 12.97 -0.4788 0 0
M  V30 4 C 12.0686 0.764 0 0
M  V30 5 C 12.0686 -1.7218 0 0
M  V30 6 C 10.607 0.2934 0 0
M  V30 7 C 10.607 -1.2512 0 0
M  V30 8 C 9.2693 1.0659 0 0
M  V30 9 C 9.2693 -2.0235 0 0
M  V30 10 C 7.9317 0.2934 0 0
M  V30 11 C 7.9317 -1.2512 0 0
M  V30 12 C 6.594 1.0659 0 0
M  V30 END ATOM
M  V30 BEGIN BOND
M  V30 1 1 1 2
M  V30 2 1 1 12
M  V30 3 1 3 4
M  V30 4 1 3 5
M  V30 5 1 4 6
M  V30 6 1 5 7
M  V30 7 2 6 7
M  V30 8 1 6 8
M  V30 9 1 7 9
M  V30 10 2 8 10
M  V30 11 2 9 11
M  V30 12 1 10 11
M  V30 13 1 10 12
M  V30 END BOND
M  V30 END CTAB
M  END

> <INPUT>
C10H14N2

> <FOUND_BY>
MS Ready Formula

> <DTXCID_INDIVIDUAL_COMPONENT>
DTXCID40583786

> <FORMULA_INDIVIDUAL_COMPONENT>
C10H14N2

> <SMILES_INDIVIDUAL_COMPONENT>
NNCC1=CC2=C(CCC2)C=C1

> <MAPPED_DTXSID>
DTXSID00633034

> <PREFERRED_NAME_DTXSID>
[(2,3-Dihydro-1H-inden-5-yl)methyl]hydrazine

> <CASRN_DTXSID>
51860-04-9

> <FORMULA_MAPPED_DTXSID>
C10H14N2

> <SMILES_MAPPED_DTXSID>
NNCC1=CC2=C(CCC2)C=C1

> <MS_READY_SMILES>
NNCC1=CC2=C(CCC2)C=C1

> <INCHI_STRING_DTXCID>
InChI=1S/C10H14N2/c11-12-7-8-4-5-9-2-1-3-10(9)6-8/h4-6,12H,1-3,7,11H2

> <INCHIKEY_DTXCID>
DIWDIDLCINRQFW-UHFFFAOYSA-N

> <MONOISOTOPIC_MASS_DTXCID>
162.115698459

> <EXPOCAST_MEDIAN_EXPOSURE_PREDICTION_MG/KG-BW/DAY>
-

> <EXPOCAST>
0

> <NHANES>
0

> <DATA_SOURCES>
1

> <TOXVAL_DATA>
0

> <TOXCAST_PERCENT_ACTIVE>
-

> <TOXCAST_NUMBER_OF_ASSAYS/TOTAL>
-

> <NUMBER_OF_PUBMED_ARTICLES>
-

> <PUBCHEM_DATA_SOURCES>
17

> <CPDAT_COUNT>
-

> <ATMOSPHERIC_HYDROXYLATION_RATE_(AOH)_CM3/MOLECULE*SEC_OPERA_PRED>
2.13202e-11

> <BIOCONCENTRATION_FACTOR_OPERA_PRED>
6.25197

> <BIODEGRADATION_HALF_LIFE_DAYS_DAYS_OPERA_PRED>
4.11937

> <BOILING_POINT_DEGC_OPERA_PRED>
257.282

> <HENRYS_LAW_ATM-M3/MOLE_OPERA_PRED>
1.17807e-07

> <OPERA_KM_DAYS_OPERA_PRED>
0.41519

> <OCTANOL_AIR_PARTITION_COEFF_LOGKOA_OPERA_PRED>
7.82963

> <SOIL_ADSORPTION_COEFFICIENT_KOC_L/KG_OPERA_PRED>
158.376

> <OCTANOL_WATER_PARTITION_LOGP_OPERA_PRED>
0.744944

> <MELTING_POINT_DEGC_OPERA_PRED>
73.8394

> <VAPOR_PRESSURE_MMHG_OPERA_PRED>
0.00201164

> <WATER_SOLUBILITY_MOL/L_OPERA_PRED>
0.00293636

> <TEST_BCF_TEST_PRED>
-

> <BOILING_POINT_DEGC_TEST_PRED>
-

> <DENSITY_G/CM^3_TEST_PRED>
1.102

> <FLASH_POINT_DEGC_TEST_PRED>
172.462

> <MELTING_POINT_DEGC_TEST_PRED>
78.411

> <SURFACE_TENSION_DYN/CM_TEST_PRED>
-

> <THERMAL_CONDUCTIVITY_MW/(M*K)_TEST_PRED>
-

> <VISCOSITY_CP_CP_TEST_PRED>
-

> <VAPOR_PRESSURE_MMHG_TEST_PRED>
-

> <WATER_SOLUBILITY_MOL/L_TEST_PRED>
0.0448745

> <AEGLVALUES>
0

> <ALGALTOX>
0

> <ARCHEMICALS>
0

> <ATSDRLST>
0

> <BISPHENOLS>
0

> <OEHHA>
0

> <CERAPP>
0

> <FUNNAMES>
0

> <KWRSJERPS>
0

> <EPACONS>
0

> <IRIS>
0

> <EPAHFR>
0

> <EUCOSMETICS>
0

> <FRENCHLIST>
0

> <HEROMAP>
0

> <ITNANTIBIOTIC>
0

> <KEMIMARKET>
0

> <MASSBANKREF>
0

> <MASSBANKEUSP>
0

> <NEMILIST>
0

> <NATADB>
0

> <NIOSHIDLH>
0

> <NIOSHICSC>
0

> <NIOSHNPG>
0

> <NIOSHSKIN>
0

> <NORMANCT15>
0

> <SFISHFLUORO>
0

> <NORMANPRI>
0

> <NORMANEWS>
0

> <PFASTRIER>
0

> <SWISSPHARMA>
0

> <PPRTVWEB>
0

> <STOCKHOLM>
0

> <STOFFIDENT>
0

> <SCDM>
0

> <EAWAGSURF>
0

> <SWISSPEST>
0

> <TOX21SL>
0

> <TOXCAST>
0

> <TOXCAST_E1K>
0

> <TOXCAST_PH1V2>
0

> <TOXCAST_PH2>
0

> <TOXCAST_PH3>
0

> <TOXCAST_PHASEI>
0

> <TOXCAST_PHASEII>
0

> <TOXCAST_PHASEIII>
0

> <TRIRELEASE>
0

> <TSCASURF>
0

> <UJIBADE>
0

> <ATHENSSUS>
0

> <UATHTARGETS>
0

$$$$

  Mrv1533009301519072D          

  0  0  0     0  0            999 V3000
M  V30 BEGIN CTAB
M  V30 COUNTS 12 13 0 0 1
M  V30 BEGIN ATOM
M  V30 1 N 9.2848 -0.8234 0 0
M  V30 2 N 3.9069 -0.77 0 0
M  V30 3 C 10.6801 1.5721 0 0
M  V30 4 C 9.2848 2.3634 0 0
M  V30 5 C 10.6801 -0.0321 0 0
M  V30 6 C 7.9081 1.54 0 0
M  V30 7 C 7.9081 0 0 0
M  V30 8 C 6.5744 -0.77 0 0
M  V30 9 C 6.5744 2.31 0 0
M  V30 10 C 9.2671 -2.3634 0 0
M  V30 11 C 5.2407 0 0 0
M  V30 12 C 5.2407 1.54 0 0
M  V30 END ATOM
M  V30 BEGIN BOND
M  V30 1 1 1 5
M  V30 2 1 1 7
M  V30 3 1 1 10
M  V30 4 1 2 11
M  V30 5 1 3 4
M  V30 6 1 3 5
M  V30 7 1 4 6
M  V30 8 2 6 7
M  V30 9 1 6 9
M  V30 10 1 7 8
M  V30 11 2 8 11
M  V30 12 2 9 12
M  V30 13 1 11 12
M  V30 END BOND
M  V30 END CTAB
M  END

> <INPUT>
C10H14N2

> <FOUND_BY>
MS Ready Formula

> <DTXCID_INDIVIDUAL_COMPONENT>
DTXCID40409811

> <FORMULA_INDIVIDUAL_COMPONENT>
C10H14N2

> <SMILES_INDIVIDUAL_COMPONENT>
CN1CCCC2=C1C=C(N)C=C2

> <MAPPED_DTXSID>
DTXSID60647556

> <PREFERRED_NAME_DTXSID>
1-Methyl-1,2,3,4-tetrahydroquinolin-7-amine--hydrogen chloride (1/1)

> <CASRN_DTXSID>
927684-97-7

> <FORMULA_MAPPED_DTXSID>
C10H15ClN2

> <SMILES_MAPPED_DTXSID>
Cl.CN1CCCC2=C1C=C(N)C=C2

> <MS_READY_SMILES>
CN1CCCC2=C1C=C(N)C=C2

> <INCHI_STRING_DTXCID>
InChI=1S/C10H14N2/c1-12-6-2-3-8-4-5-9(11)7-10(8)12/h4-5,7H,2-3,6,11H2,1H3

> <INCHIKEY_DTXCID>
OMGAOBAAEGMMTF-UHFFFAOYSA-N

> <MONOISOTOPIC_MASS_DTXCID>
162.115698459

> <EXPOCAST_MEDIAN_EXPOSURE_PREDICTION_MG/KG-BW/DAY>
-

> <EXPOCAST>
0

> <NHANES>
0

> <DATA_SOURCES>
1

> <TOXVAL_DATA>
0

> <TOXCAST_PERCENT_ACTIVE>
-

> <TOXCAST_NUMBER_OF_ASSAYS/TOTAL>
-

> <NUMBER_OF_PUBMED_ARTICLES>
-

> <PUBCHEM_DATA_SOURCES>
36

> <CPDAT_COUNT>
-

> <ATMOSPHERIC_HYDROXYLATION_RATE_(AOH)_CM3/MOLECULE*SEC_OPERA_PRED>
1.78872e-11

> <BIOCONCENTRATION_FACTOR_OPERA_PRED>
14.7174

> <BIODEGRADATION_HALF_LIFE_DAYS_DAYS_OPERA_PRED>
2.77657

> <BOILING_POINT_DEGC_OPERA_PRED>
306.973

> <HENRYS_LAW_ATM-M3/MOLE_OPERA_PRED>
2.17258e-07

> <OPERA_KM_DAYS_OPERA_PRED>
0.363691

> <OCTANOL_AIR_PARTITION_COEFF_LOGKOA_OPERA_PRED>
8.74629

> <SOIL_ADSORPTION_COEFFICIENT_KOC_L/KG_OPERA_PRED>
183.567

> <OCTANOL_WATER_PARTITION_LOGP_OPERA_PRED>
1.40884

> <MELTING_POINT_DEGC_OPERA_PRED>
214.06

> <VAPOR_PRESSURE_MMHG_OPERA_PRED>
0.000107647

> <WATER_SOLUBILITY_MOL/L_OPERA_PRED>
0.0153608

> <TEST_BCF_TEST_PRED>
13.9959

> <BOILING_POINT_DEGC_TEST_PRED>
284.119

> <DENSITY_G/CM^3_TEST_PRED>
1.099

> <FLASH_POINT_DEGC_TEST_PRED>
142.277

> <MELTING_POINT_DEGC_TEST_PRED>
97.818

> <SURFACE_TENSION_DYN/CM_TEST_PRED>
-

> <THERMAL_CONDUCTIVITY_MW/(M*K)_TEST_PRED>
155.49

> <VISCOSITY_CP_CP_TEST_PRED>
5.54626

> <VAPOR_PRESSURE_MMHG_TEST_PRED>
0.000751623

> <WATER_SOLUBILITY_MOL/L_TEST_PRED>
0.00628058

> <AEGLVALUES>
0

> <ALGALTOX>
0

> <ARCHEMICALS>
0

> <ATSDRLST>
0

> <BISPHENOLS>
0

> <OEHHA>
0

> <CERAPP>
0

> <FUNNAMES>
0

> <KWRSJERPS>
0

> <EPACONS>
0

> <IRIS>
0

> <EPAHFR>
0

> <EUCOSMETICS>
0

> <FRENCHLIST>
0

> <HEROMAP>
0

> <ITNANTIBIOTIC>
0

> <KEMIMARKET>
0

> <MASSBANKREF>
0

> <MASSBANKEUSP>
0

> <NEMILIST>
0

> <NATADB>
0

> <NIOSHIDLH>
0

> <NIOSHICSC>
0

> <NIOSHNPG>
0

> <NIOSHSKIN>
0

> <NORMANCT15>
0

> <SFISHFLUORO>
0

> <NORMANPRI>
0

> <NORMANEWS>
0

> <PFASTRIER>
0

> <SWISSPHARMA>
0

> <PPRTVWEB>
0

> <STOCKHOLM>
0

> <STOFFIDENT>
0

> <SCDM>
0

> <EAWAGSURF>
0

> <SWISSPEST>
0

> <TOX21SL>
0

> <TOXCAST>
0

> <TOXCAST_E1K>
0

> <TOXCAST_PH1V2>
0

> <TOXCAST_PH2>
0

> <TOXCAST_PH3>
0

> <TOXCAST_PHASEI>
0

> <TOXCAST_PHASEII>
0

> <TOXCAST_PHASEIII>
0

> <TRIRELEASE>
0

> <TSCASURF>
0

> <UJIBADE>
0

> <ATHENSSUS>
0

> <UATHTARGETS>
0

$$$$
602883
  Mrv1611109291616312D          

  0  0  0     0  0            999 V3000
M  V30 BEGIN CTAB
M  V30 COUNTS 12 13 0 0 0
M  V30 BEGIN ATOM
M  V30 1 N -2.6374 1.0299 0 0
M  V30 2 C -1.3037 1.7999 0 0
M  V30 3 C 0.03 1.0299 0 0
M  V30 4 C 1.3636 1.7999 0 0
M  V30 5 C 2.6973 1.0299 0 0
M  V30 6 C 2.6973 -0.5101 0 0
M  V30 7 C 1.3636 -1.2801 0 0
M  V30 8 C 0.03 -0.5101 0 0
M  V30 9 C -1.3037 -1.2801 0 0
M  V30 10 C -2.6374 -0.5101 0 0
M  V30 11 C -3.9711 -1.2801 0 0
M  V30 12 N -3.9711 -2.8201 0 0
M  V30 END ATOM
M  V30 BEGIN BOND
M  V30 1 1 1 2
M  V30 2 1 2 3
M  V30 3 2 3 4
M  V30 4 1 4 5
M  V30 5 2 5 6
M  V30 6 1 6 7
M  V30 7 2 7 8
M  V30 8 1 8 3
M  V30 9 1 8 9
M  V30 10 1 9 10
M  V30 11 1 10 1
M  V30 12 1 10 11
M  V30 13 1 11 12
M  V30 END BOND
M  V30 END CTAB
M  END

> <INPUT>
C10H14N2

> <FOUND_BY>
MS Ready Formula

> <DTXCID_INDIVIDUAL_COMPONENT>
DTXCID10882511

> <FORMULA_INDIVIDUAL_COMPONENT>
C10H14N2

> <SMILES_INDIVIDUAL_COMPONENT>
NCC1CC2=CC=CC=C2CN1

> <MAPPED_DTXSID>
DTXSID90652133

> <PREFERRED_NAME_DTXSID>
1-[(3S)-1,2,3,4-Tetrahydroisoquinolin-3-yl]methanamine

> <CASRN_DTXSID>
195832-21-4

> <FORMULA_MAPPED_DTXSID>
C10H14N2

> <SMILES_MAPPED_DTXSID>
NC[C@@H]1CC2=CC=CC=C2CN1

> <MS_READY_SMILES>
NCC1CC2=CC=CC=C2CN1

> <INCHI_STRING_DTXCID>
InChI=1S/C10H14N2/c11-6-10-5-8-3-1-2-4-9(8)7-12-10/h1-4,10,12H,5-7,11H2

> <INCHIKEY_DTXCID>
QQDYNQIMTRERLH-UHFFFAOYSA-N

> <MONOISOTOPIC_MASS_DTXCID>
162.115698459

> <EXPOCAST_MEDIAN_EXPOSURE_PREDICTION_MG/KG-BW/DAY>
-

> <EXPOCAST>
0

> <NHANES>
0

> <DATA_SOURCES>
1

> <TOXVAL_DATA>
0

> <TOXCAST_PERCENT_ACTIVE>
-

> <TOXCAST_NUMBER_OF_ASSAYS/TOTAL>
-

> <NUMBER_OF_PUBMED_ARTICLES>
-

> <PUBCHEM_DATA_SOURCES>
22

> <CPDAT_COUNT>
-

> <ATMOSPHERIC_HYDROXYLATION_RATE_(AOH)_CM3/MOLECULE*SEC_OPERA_PRED>
1.47682e-11

> <BIOCONCENTRATION_FACTOR_OPERA_PRED>
4.0331

> <BIODEGRADATION_HALF_LIFE_DAYS_DAYS_OPERA_PRED>
4.08764

> <BOILING_POINT_DEGC_OPERA_PRED>
265.364

> <HENRYS_LAW_ATM-M3/MOLE_OPERA_PRED>
1.04142e-07

> <OPERA_KM_DAYS_OPERA_PRED>
0.203005

> <OCTANOL_AIR_PARTITION_COEFF_LOGKOA_OPERA_PRED>
7.9405

> <SOIL_ADSORPTION_COEFFICIENT_KOC_L/KG_OPERA_PRED>
139.493

> <OCTANOL_WATER_PARTITION_LOGP_OPERA_PRED>
1.42622

> <MELTING_POINT_DEGC_OPERA_PRED>
86.3951

> <VAPOR_PRESSURE_MMHG_OPERA_PRED>
6.69658e-05

> <WATER_SOLUBILITY_MOL/L_OPERA_PRED>
0.291459

> <TEST_BCF_TEST_PRED>
3.42768

> <BOILING_POINT_DEGC_TEST_PRED>
267.974

> <DENSITY_G/CM^3_TEST_PRED>
1.007

> <FLASH_POINT_DEGC_TEST_PRED>
134.24

> <MELTING_POINT_DEGC_TEST_PRED>
106.769

> <SURFACE_TENSION_DYN/CM_TEST_PRED>
33.427

> <THERMAL_CONDUCTIVITY_MW/(M*K)_TEST_PRED>
181.998

> <VISCOSITY_CP_CP_TEST_PRED>
10.4232

> <VAPOR_PRESSURE_MMHG_TEST_PRED>
0.000372392

> <WATER_SOLUBILITY_MOL/L_TEST_PRED>
0.034914

> <AEGLVALUES>
0

> <ALGALTOX>
0

> <ARCHEMICALS>
0

> <ATSDRLST>
0

> <BISPHENOLS>
0

> <OEHHA>
0

> <CERAPP>
0

> <FUNNAMES>
0

> <KWRSJERPS>
0

> <EPACONS>
0

> <IRIS>
0

> <EPAHFR>
0

> <EUCOSMETICS>
0

> <FRENCHLIST>
0

> <HEROMAP>
0

> <ITNANTIBIOTIC>
0

> <KEMIMARKET>
0

> <MASSBANKREF>
0

> <MASSBANKEUSP>
0

> <NEMILIST>
0

> <NATADB>
0

> <NIOSHIDLH>
0

> <NIOSHICSC>
0

> <NIOSHNPG>
0

> <NIOSHSKIN>
0

> <NORMANCT15>
0

> <SFISHFLUORO>
0

> <NORMANPRI>
0

> <NORMANEWS>
0

> <PFASTRIER>
0

> <SWISSPHARMA>
0

> <PPRTVWEB>
0

> <STOCKHOLM>
0

> <STOFFIDENT>
0

> <SCDM>
0

> <EAWAGSURF>
0

> <SWISSPEST>
0

> <TOX21SL>
0

> <TOXCAST>
0

> <TOXCAST_E1K>
0

> <TOXCAST_PH1V2>
0

> <TOXCAST_PH2>
0

> <TOXCAST_PH3>
0

> <TOXCAST_PHASEI>
0

> <TOXCAST_PHASEII>
0

> <TOXCAST_PHASEIII>
0

> <TRIRELEASE>
0

> <TSCASURF>
0

> <UJIBADE>
0

> <ATHENSSUS>
0

> <UATHTARGETS>
0

$$$$
605640
  Mrv1611109291616352D          

  0  0  0     0  0            999 V3000
M  V30 BEGIN CTAB
M  V30 COUNTS 12 13 0 0 0
M  V30 BEGIN ATOM
M  V30 1 N 2.253 -3.673 0 0
M  V30 2 C 1.7771 -5.1376 0 0
M  V30 3 C 0.2371 -5.1376 0 0
M  V30 4 C -0.2388 -3.673 0 0
M  V30 5 C 1.0071 -2.7678 0 0
M  V30 6 C 1.0071 -1.2278 0 0
M  V30 7 C -0.3266 -0.4578 0 0
M  V30 8 C -1.6602 -1.2278 0 0
M  V30 9 C -0.3266 1.0822 0 0
M  V30 10 C 1.0071 1.8522 0 0
M  V30 11 C 2.3408 1.0822 0 0
M  V30 12 N 2.3408 -0.4578 0 0
M  V30 END ATOM
M  V30 BEGIN BOND
M  V30 1 1 1 2
M  V30 2 1 2 3
M  V30 3 1 3 4
M  V30 4 1 4 5
M  V30 5 1 5 1
M  V30 6 1 5 6
M  V30 7 2 6 7
M  V30 8 1 7 8
M  V30 9 1 7 9
M  V30 10 2 9 10
M  V30 11 1 10 11
M  V30 12 2 11 12
M  V30 13 1 12 6
M  V30 END BOND
M  V30 END CTAB
M  END

> <INPUT>
C10H14N2

> <FOUND_BY>
MS Ready Formula

> <DTXCID_INDIVIDUAL_COMPONENT>
DTXCID70883004

> <FORMULA_INDIVIDUAL_COMPONENT>
C10H14N2

> <SMILES_INDIVIDUAL_COMPONENT>
CC1=C(N=CC=C1)C1CCCN1

> <MAPPED_DTXSID>
DTXSID50654890

> <PREFERRED_NAME_DTXSID>
3-Methyl-2-(pyrrolidin-2-yl)pyridine

> <CASRN_DTXSID>
23894-37-3

> <FORMULA_MAPPED_DTXSID>
C10H14N2

> <SMILES_MAPPED_DTXSID>
CC1=C(N=CC=C1)C1CCCN1

> <MS_READY_SMILES>
CC1=C(N=CC=C1)C1CCCN1

> <INCHI_STRING_DTXCID>
InChI=1S/C10H14N2/c1-8-4-2-7-12-10(8)9-5-3-6-11-9/h2,4,7,9,11H,3,5-6H2,1H3

> <INCHIKEY_DTXCID>
QIQHWGGROIBWSH-UHFFFAOYSA-N

> <MONOISOTOPIC_MASS_DTXCID>
162.115698459

> <EXPOCAST_MEDIAN_EXPOSURE_PREDICTION_MG/KG-BW/DAY>
-

> <EXPOCAST>
0

> <NHANES>
0

> <DATA_SOURCES>
1

> <TOXVAL_DATA>
0

> <TOXCAST_PERCENT_ACTIVE>
-

> <TOXCAST_NUMBER_OF_ASSAYS/TOTAL>
-

> <NUMBER_OF_PUBMED_ARTICLES>
-

> <PUBCHEM_DATA_SOURCES>
14

> <CPDAT_COUNT>
-

> <ATMOSPHERIC_HYDROXYLATION_RATE_(AOH)_CM3/MOLECULE*SEC_OPERA_PRED>
2.10517e-11

> <BIOCONCENTRATION_FACTOR_OPERA_PRED>
7.46718

> <BIODEGRADATION_HALF_LIFE_DAYS_DAYS_OPERA_PRED>
2.77563

> <BOILING_POINT_DEGC_OPERA_PRED>
281.098

> <HENRYS_LAW_ATM-M3/MOLE_OPERA_PRED>
2.88003e-07

> <OPERA_KM_DAYS_OPERA_PRED>
0.382361

> <OCTANOL_AIR_PARTITION_COEFF_LOGKOA_OPERA_PRED>
8.35452

> <SOIL_ADSORPTION_COEFFICIENT_KOC_L/KG_OPERA_PRED>
123.969

> <OCTANOL_WATER_PARTITION_LOGP_OPERA_PRED>
0.894487

> <MELTING_POINT_DEGC_OPERA_PRED>
87.2053

> <VAPOR_PRESSURE_MMHG_OPERA_PRED>
0.0118254

> <WATER_SOLUBILITY_MOL/L_OPERA_PRED>
0.252858

> <TEST_BCF_TEST_PRED>
14.0281

> <BOILING_POINT_DEGC_TEST_PRED>
270.392

> <DENSITY_G/CM^3_TEST_PRED>
1.028

> <FLASH_POINT_DEGC_TEST_PRED>
111.241

> <MELTING_POINT_DEGC_TEST_PRED>
40.597

> <SURFACE_TENSION_DYN/CM_TEST_PRED>
37.861

> <THERMAL_CONDUCTIVITY_MW/(M*K)_TEST_PRED>
145.143

> <VISCOSITY_CP_CP_TEST_PRED>
13.213

> <VAPOR_PRESSURE_MMHG_TEST_PRED>
0.00215774

> <WATER_SOLUBILITY_MOL/L_TEST_PRED>
0.0316957

> <AEGLVALUES>
0

> <ALGALTOX>
0

> <ARCHEMICALS>
0

> <ATSDRLST>
0

> <BISPHENOLS>
0

> <OEHHA>
0

> <CERAPP>
0

> <FUNNAMES>
0

> <KWRSJERPS>
0

> <EPACONS>
0

> <IRIS>
0

> <EPAHFR>
0

> <EUCOSMETICS>
0

> <FRENCHLIST>
0

> <HEROMAP>
0

> <ITNANTIBIOTIC>
0

> <KEMIMARKET>
0

> <MASSBANKREF>
0

> <MASSBANKEUSP>
0

> <NEMILIST>
0

> <NATADB>
0

> <NIOSHIDLH>
0

> <NIOSHICSC>
0

> <NIOSHNPG>
0

> <NIOSHSKIN>
0

> <NORMANCT15>
0

> <SFISHFLUORO>
0

> <NORMANPRI>
0

> <NORMANEWS>
0

> <PFASTRIER>
0

> <SWISSPHARMA>
0

> <PPRTVWEB>
0

> <STOCKHOLM>
0

> <STOFFIDENT>
0

> <SCDM>
0

> <EAWAGSURF>
0

> <SWISSPEST>
0

> <TOX21SL>
0

> <TOXCAST>
0

> <TOXCAST_E1K>
0

> <TOXCAST_PH1V2>
0

> <TOXCAST_PH2>
0

> <TOXCAST_PH3>
0

> <TOXCAST_PHASEI>
0

> <TOXCAST_PHASEII>
0

> <TOXCAST_PHASEIII>
0

> <TRIRELEASE>
0

> <TSCASURF>
0

> <UJIBADE>
0

> <ATHENSSUS>
0

> <UATHTARGETS>
0

$$$$
185782
  Mrv1611103081716072D          

  0  0  0     0  0            999 V3000
M  V30 BEGIN CTAB
M  V30 COUNTS 12 13 0 0 0
M  V30 BEGIN ATOM
M  V30 1 N -1.0703 -2.2636 0 0
M  V30 2 C 0.2634 -1.4936 0 0
M  V30 3 C 0.2634 0.0464 0 0
M  V30 4 C -1.0703 0.8164 0 0
M  V30 5 C -1.0703 2.3564 0 0
M  V30 6 C 0.2634 3.1264 0 0
M  V30 7 N 1.597 2.3564 0 0
M  V30 8 C 1.597 0.8164 0 0
M  V30 9 C 1.597 -2.2636 0 0
M  V30 10 C 1.597 -3.8036 0 0
M  V30 11 C 0.2634 -4.5736 0 0
M  V30 12 C -1.0703 -3.8036 0 0
M  V30 END ATOM
M  V30 BEGIN BOND
M  V30 1 1 1 2
M  V30 2 1 2 3
M  V30 3 2 3 4
M  V30 4 1 4 5
M  V30 5 2 5 6
M  V30 6 1 6 7
M  V30 7 2 7 8
M  V30 8 1 8 3
M  V30 9 1 2 9
M  V30 10 1 9 10
M  V30 11 1 10 11
M  V30 12 1 11 12
M  V30 13 1 12 1
M  V30 END BOND
M  V30 END CTAB
M  END

> <INPUT>
C10H14N2

> <FOUND_BY>
MS Ready Formula

> <DTXCID_INDIVIDUAL_COMPONENT>
DTXCID50202491

> <FORMULA_INDIVIDUAL_COMPONENT>
C10H14N2

> <SMILES_INDIVIDUAL_COMPONENT>
C1CCC(NC1)C1=CC=CN=C1

> <MAPPED_DTXSID>
DTXSID30661789

> <PREFERRED_NAME_DTXSID>
3-(Piperidin-2-yl)(~2~H_4_)pyridine

> <CASRN_DTXSID>
1020719-08-7

> <FORMULA_MAPPED_DTXSID>
C10H10D4N2

> <SMILES_MAPPED_DTXSID>
[2H]C1=NC([2H])=C(C2CCCCN2)C([2H])=C1[2H]

> <MS_READY_SMILES>
-

> <INCHI_STRING_DTXCID>
InChI=1S/C10H14N2/c1-2-7-12-10(5-1)9-4-3-6-11-8-9/h3-4,6,8,10,12H,1-2,5,7H2

> <INCHIKEY_DTXCID>
MTXSIJUGVMTTMU-UHFFFAOYSA-N

> <MONOISOTOPIC_MASS_DTXCID>
162.115698459

> <EXPOCAST_MEDIAN_EXPOSURE_PREDICTION_MG/KG-BW/DAY>
-

> <EXPOCAST>
0

> <NHANES>
0

> <DATA_SOURCES>
1

> <TOXVAL_DATA>
0

> <TOXCAST_PERCENT_ACTIVE>
-

> <TOXCAST_NUMBER_OF_ASSAYS/TOTAL>
-

> <NUMBER_OF_PUBMED_ARTICLES>
-

> <PUBCHEM_DATA_SOURCES>
7

> <CPDAT_COUNT>
-

> <ATMOSPHERIC_HYDROXYLATION_RATE_(AOH)_CM3/MOLECULE*SEC_OPERA_PRED>
4.36897e-11

> <BIOCONCENTRATION_FACTOR_OPERA_PRED>
8.93408

> <BIODEGRADATION_HALF_LIFE_DAYS_DAYS_OPERA_PRED>
2.77408

> <BOILING_POINT_DEGC_OPERA_PRED>
280.593

> <HENRYS_LAW_ATM-M3/MOLE_OPERA_PRED>
2.85646e-07

> <OPERA_KM_DAYS_OPERA_PRED>
0.501872

> <OCTANOL_AIR_PARTITION_COEFF_LOGKOA_OPERA_PRED>
8.36352

> <SOIL_ADSORPTION_COEFFICIENT_KOC_L/KG_OPERA_PRED>
145.09

> <OCTANOL_WATER_PARTITION_LOGP_OPERA_PRED>
0.909452

> <MELTING_POINT_DEGC_OPERA_PRED>
27.163

> <VAPOR_PRESSURE_MMHG_OPERA_PRED>
0.011755

> <WATER_SOLUBILITY_MOL/L_OPERA_PRED>
1.66388

> <TEST_BCF_TEST_PRED>
8.20352

> <BOILING_POINT_DEGC_TEST_PRED>
267.022

> <DENSITY_G/CM^3_TEST_PRED>
1.036

> <FLASH_POINT_DEGC_TEST_PRED>
110.815

> <MELTING_POINT_DEGC_TEST_PRED>
22.708

> <SURFACE_TENSION_DYN/CM_TEST_PRED>
38.231

> <THERMAL_CONDUCTIVITY_MW/(M*K)_TEST_PRED>
151.208

> <VISCOSITY_CP_CP_TEST_PRED>
12.7644

> <VAPOR_PRESSURE_MMHG_TEST_PRED>
0.00864968

> <WATER_SOLUBILITY_MOL/L_TEST_PRED>
0.055335

> <AEGLVALUES>
0

> <ALGALTOX>
0

> <ARCHEMICALS>
0

> <ATSDRLST>
0

> <BISPHENOLS>
0

> <OEHHA>
0

> <CERAPP>
0

> <FUNNAMES>
0

> <KWRSJERPS>
0

> <EPACONS>
0

> <IRIS>
0

> <EPAHFR>
0

> <EUCOSMETICS>
0

> <FRENCHLIST>
0

> <HEROMAP>
0

> <ITNANTIBIOTIC>
0

> <KEMIMARKET>
0

> <MASSBANKREF>
0

> <MASSBANKEUSP>
0

> <NEMILIST>
0

> <NATADB>
0

> <NIOSHIDLH>
0

> <NIOSHICSC>
0

> <NIOSHNPG>
0

> <NIOSHSKIN>
0

> <NORMANCT15>
0

> <SFISHFLUORO>
0

> <NORMANPRI>
0

> <NORMANEWS>
0

> <PFASTRIER>
0

> <SWISSPHARMA>
0

> <PPRTVWEB>
0

> <STOCKHOLM>
0

> <STOFFIDENT>
0

> <SCDM>
0

> <EAWAGSURF>
0

> <SWISSPEST>
0

> <TOX21SL>
0

> <TOXCAST>
0

> <TOXCAST_E1K>
0

> <TOXCAST_PH1V2>
0

> <TOXCAST_PH2>
0

> <TOXCAST_PH3>
0

> <TOXCAST_PHASEI>
0

> <TOXCAST_PHASEII>
0

> <TOXCAST_PHASEIII>
0

> <TRIRELEASE>
0

> <TSCASURF>
0

> <UJIBADE>
0

> <ATHENSSUS>
0

> <UATHTARGETS>
0

$$$$

  Mrv1611108211713492D          

  0  0  0     0  0            999 V3000
M  V30 BEGIN CTAB
M  V30 COUNTS 12 13 0 0 0
M  V30 BEGIN ATOM
M  V30 1 N 5.3343 -2.0521 0 0
M  V30 2 C 4.0583 -2.9401 0 0
M  V30 3 C 2.6507 -2.3152 0 0
M  V30 4 N 1.3352 0 0 0
M  V30 5 C 2.6507 -0.7762 0 0
M  V30 6 C 6.5774 -2.927 0 0
M  V30 7 C 5.3343 -0.4801 0 0
M  V30 8 C 4.5581 -4.4069 0 0
M  V30 9 C 6.1301 -4.4069 0 0
M  V30 10 C 1.3352 -3.0717 0 0
M  V30 11 C 0 -0.7565 0 0
M  V30 12 C 0 -2.3152 0 0
M  V30 END ATOM
M  V30 BEGIN BOND
M  V30 1 1 1 2
M  V30 2 1 1 6
M  V30 3 1 1 7
M  V30 4 1 2 3
M  V30 5 1 2 8
M  V30 6 2 3 5
M  V30 7 1 3 10
M  V30 8 1 4 5
M  V30 9 2 4 11
M  V30 10 1 6 9
M  V30 11 1 8 9
M  V30 12 2 10 12
M  V30 13 1 11 12
M  V30 END BOND
M  V30 END CTAB
M  END

> <INPUT>
C10H14N2

> <FOUND_BY>
MS Ready Formula

> <DTXCID_INDIVIDUAL_COMPONENT>
DTXCID9028128

> <FORMULA_INDIVIDUAL_COMPONENT>
C10H14N2

> <SMILES_INDIVIDUAL_COMPONENT>
CN1CCCC1C1=CN=CC=C1

> <MAPPED_DTXSID>
DTXSID60662143

> <PREFERRED_NAME_DTXSID>
3-[1-Methyl(2,3,3-~2~H_3_)pyrrolidin-2-yl]pyridine

> <CASRN_DTXSID>
1189681-48-8

> <FORMULA_MAPPED_DTXSID>
C10H11D3N2

> <SMILES_MAPPED_DTXSID>
[2H]C1([2H])CCN(C)C1([2H])C1=CN=CC=C1

> <MS_READY_SMILES>
-

> <INCHI_STRING_DTXCID>
InChI=1S/C10H14N2/c1-12-7-3-5-10(12)9-4-2-6-11-8-9/h2,4,6,8,10H,3,5,7H2,1H3

> <INCHIKEY_DTXCID>
SNICXCGAKADSCV-UHFFFAOYSA-N

> <MONOISOTOPIC_MASS_DTXCID>
162.115698459

> <EXPOCAST_MEDIAN_EXPOSURE_PREDICTION_MG/KG-BW/DAY>
-

> <EXPOCAST>
0

> <NHANES>
0

> <DATA_SOURCES>
1

> <TOXVAL_DATA>
0

> <TOXCAST_PERCENT_ACTIVE>
-

> <TOXCAST_NUMBER_OF_ASSAYS/TOTAL>
-

> <NUMBER_OF_PUBMED_ARTICLES>
-

> <PUBCHEM_DATA_SOURCES>
4

> <CPDAT_COUNT>
-

> <ATMOSPHERIC_HYDROXYLATION_RATE_(AOH)_CM3/MOLECULE*SEC_OPERA_PRED>
4.3164e-11

> <BIOCONCENTRATION_FACTOR_OPERA_PRED>
6.524

> <BIODEGRADATION_HALF_LIFE_DAYS_DAYS_OPERA_PRED>
3.36018

> <BOILING_POINT_DEGC_OPERA_PRED>
253.418

> <HENRYS_LAW_ATM-M3/MOLE_OPERA_PRED>
6.65993e-06

> <OPERA_KM_DAYS_OPERA_PRED>
5.93649

> <OCTANOL_AIR_PARTITION_COEFF_LOGKOA_OPERA_PRED>
5.80576

> <SOIL_ADSORPTION_COEFFICIENT_KOC_L/KG_OPERA_PRED>
110.746

> <OCTANOL_WATER_PARTITION_LOGP_OPERA_PRED>
1.17766

> <MELTING_POINT_DEGC_OPERA_PRED>
-34.4392

> <VAPOR_PRESSURE_MMHG_OPERA_PRED>
0.013088

> <WATER_SOLUBILITY_MOL/L_OPERA_PRED>
4.51047

> <TEST_BCF_TEST_PRED>
11.995

> <BOILING_POINT_DEGC_TEST_PRED>
244.899

> <DENSITY_G/CM^3_TEST_PRED>
1.03

> <FLASH_POINT_DEGC_TEST_PRED>
95.541

> <MELTING_POINT_DEGC_TEST_PRED>
18.147

> <SURFACE_TENSION_DYN/CM_TEST_PRED>
36.302

> <THERMAL_CONDUCTIVITY_MW/(M*K)_TEST_PRED>
143.221

> <VISCOSITY_CP_CP_TEST_PRED>
7.2778

> <VAPOR_PRESSURE_MMHG_TEST_PRED>
0.00436516

> <WATER_SOLUBILITY_MOL/L_TEST_PRED>
0.0799834

> <AEGLVALUES>
0

> <ALGALTOX>
0

> <ARCHEMICALS>
0

> <ATSDRLST>
0

> <BISPHENOLS>
0

> <OEHHA>
0

> <CERAPP>
0

> <FUNNAMES>
0

> <KWRSJERPS>
0

> <EPACONS>
0

> <IRIS>
0

> <EPAHFR>
0

> <EUCOSMETICS>
0

> <FRENCHLIST>
0

> <HEROMAP>
0

> <ITNANTIBIOTIC>
0

> <KEMIMARKET>
0

> <MASSBANKREF>
0

> <MASSBANKEUSP>
0

> <NEMILIST>
0

> <NATADB>
0

> <NIOSHIDLH>
0

> <NIOSHICSC>
0

> <NIOSHNPG>
0

> <NIOSHSKIN>
0

> <NORMANCT15>
0

> <SFISHFLUORO>
0

> <NORMANPRI>
0

> <NORMANEWS>
0

> <PFASTRIER>
0

> <SWISSPHARMA>
0

> <PPRTVWEB>
0

> <STOCKHOLM>
0

> <STOFFIDENT>
0

> <SCDM>
0

> <EAWAGSURF>
0

> <SWISSPEST>
0

> <TOX21SL>
0

> <TOXCAST>
0

> <TOXCAST_E1K>
0

> <TOXCAST_PH1V2>
0

> <TOXCAST_PH2>
0

> <TOXCAST_PH3>
0

> <TOXCAST_PHASEI>
0

> <TOXCAST_PHASEII>
0

> <TOXCAST_PHASEIII>
0

> <TRIRELEASE>
0

> <TSCASURF>
0

> <UJIBADE>
0

> <ATHENSSUS>
0

> <UATHTARGETS>
0

$$$$

  Mrv1611108211713492D          

  0  0  0     0  0            999 V3000
M  V30 BEGIN CTAB
M  V30 COUNTS 12 13 0 0 0
M  V30 BEGIN ATOM
M  V30 1 N 5.3343 -2.0521 0 0
M  V30 2 C 4.0583 -2.9401 0 0
M  V30 3 C 2.6507 -2.3152 0 0
M  V30 4 N 1.3352 0 0 0
M  V30 5 C 2.6507 -0.7762 0 0
M  V30 6 C 6.5774 -2.927 0 0
M  V30 7 C 5.3343 -0.4801 0 0
M  V30 8 C 4.5581 -4.4069 0 0
M  V30 9 C 6.1301 -4.4069 0 0
M  V30 10 C 1.3352 -3.0717 0 0
M  V30 11 C 0 -0.7565 0 0
M  V30 12 C 0 -2.3152 0 0
M  V30 END ATOM
M  V30 BEGIN BOND
M  V30 1 1 1 2
M  V30 2 1 1 6
M  V30 3 1 1 7
M  V30 4 1 2 3
M  V30 5 1 2 8
M  V30 6 2 3 5
M  V30 7 1 3 10
M  V30 8 1 4 5
M  V30 9 2 4 11
M  V30 10 1 6 9
M  V30 11 1 8 9
M  V30 12 2 10 12
M  V30 13 1 11 12
M  V30 END BOND
M  V30 END CTAB
M  END

> <INPUT>
C10H14N2

> <FOUND_BY>
MS Ready Formula

> <DTXCID_INDIVIDUAL_COMPONENT>
DTXCID9028128

> <FORMULA_INDIVIDUAL_COMPONENT>
C10H14N2

> <SMILES_INDIVIDUAL_COMPONENT>
CN1CCCC1C1=CN=CC=C1

> <MAPPED_DTXSID>
DTXSID20662144

> <PREFERRED_NAME_DTXSID>
3-(1-Methylpyrrolidin-2-yl)(~2~H_4_)pyridine

> <CASRN_DTXSID>
350818-69-8

> <FORMULA_MAPPED_DTXSID>
C10H10D4N2

> <SMILES_MAPPED_DTXSID>
[2H]C1=NC([2H])=C(C2CCCN2C)C([2H])=C1[2H]

> <MS_READY_SMILES>
-

> <INCHI_STRING_DTXCID>
InChI=1S/C10H14N2/c1-12-7-3-5-10(12)9-4-2-6-11-8-9/h2,4,6,8,10H,3,5,7H2,1H3

> <INCHIKEY_DTXCID>
SNICXCGAKADSCV-UHFFFAOYSA-N

> <MONOISOTOPIC_MASS_DTXCID>
162.115698459

> <EXPOCAST_MEDIAN_EXPOSURE_PREDICTION_MG/KG-BW/DAY>
-

> <EXPOCAST>
0

> <NHANES>
0

> <DATA_SOURCES>
1

> <TOXVAL_DATA>
0

> <TOXCAST_PERCENT_ACTIVE>
-

> <TOXCAST_NUMBER_OF_ASSAYS/TOTAL>
-

> <NUMBER_OF_PUBMED_ARTICLES>
-

> <PUBCHEM_DATA_SOURCES>
12

> <CPDAT_COUNT>
-

> <ATMOSPHERIC_HYDROXYLATION_RATE_(AOH)_CM3/MOLECULE*SEC_OPERA_PRED>
4.3164e-11

> <BIOCONCENTRATION_FACTOR_OPERA_PRED>
6.524

> <BIODEGRADATION_HALF_LIFE_DAYS_DAYS_OPERA_PRED>
3.36018

> <BOILING_POINT_DEGC_OPERA_PRED>
253.418

> <HENRYS_LAW_ATM-M3/MOLE_OPERA_PRED>
6.65993e-06

> <OPERA_KM_DAYS_OPERA_PRED>
5.93649

> <OCTANOL_AIR_PARTITION_COEFF_LOGKOA_OPERA_PRED>
5.80576

> <SOIL_ADSORPTION_COEFFICIENT_KOC_L/KG_OPERA_PRED>
110.746

> <OCTANOL_WATER_PARTITION_LOGP_OPERA_PRED>
1.17766

> <MELTING_POINT_DEGC_OPERA_PRED>
-34.4392

> <VAPOR_PRESSURE_MMHG_OPERA_PRED>
0.013088

> <WATER_SOLUBILITY_MOL/L_OPERA_PRED>
4.51047

> <TEST_BCF_TEST_PRED>
11.995

> <BOILING_POINT_DEGC_TEST_PRED>
244.899

> <DENSITY_G/CM^3_TEST_PRED>
1.03

> <FLASH_POINT_DEGC_TEST_PRED>
95.541

> <MELTING_POINT_DEGC_TEST_PRED>
18.147

> <SURFACE_TENSION_DYN/CM_TEST_PRED>
36.302

> <THERMAL_CONDUCTIVITY_MW/(M*K)_TEST_PRED>
143.221

> <VISCOSITY_CP_CP_TEST_PRED>
7.2778

> <VAPOR_PRESSURE_MMHG_TEST_PRED>
0.00436516

> <WATER_SOLUBILITY_MOL/L_TEST_PRED>
0.0799834

> <AEGLVALUES>
0

> <ALGALTOX>
0

> <ARCHEMICALS>
0

> <ATSDRLST>
0

> <BISPHENOLS>
0

> <OEHHA>
0

> <CERAPP>
0

> <FUNNAMES>
0

> <KWRSJERPS>
0

> <EPACONS>
0

> <IRIS>
0

> <EPAHFR>
0

> <EUCOSMETICS>
0

> <FRENCHLIST>
0

> <HEROMAP>
0

> <ITNANTIBIOTIC>
0

> <KEMIMARKET>
0

> <MASSBANKREF>
0

> <MASSBANKEUSP>
0

> <NEMILIST>
0

> <NATADB>
0

> <NIOSHIDLH>
0

> <NIOSHICSC>
0

> <NIOSHNPG>
0

> <NIOSHSKIN>
0

> <NORMANCT15>
0

> <SFISHFLUORO>
0

> <NORMANPRI>
0

> <NORMANEWS>
0

> <PFASTRIER>
0

> <SWISSPHARMA>
0

> <PPRTVWEB>
0

> <STOCKHOLM>
0

> <STOFFIDENT>
0

> <SCDM>
0

> <EAWAGSURF>
0

> <SWISSPEST>
0

> <TOX21SL>
0

> <TOXCAST>
0

> <TOXCAST_E1K>
0

> <TOXCAST_PH1V2>
0

> <TOXCAST_PH2>
0

> <TOXCAST_PH3>
0

> <TOXCAST_PHASEI>
0

> <TOXCAST_PHASEII>
0

> <TOXCAST_PHASEIII>
0

> <TRIRELEASE>
0

> <TSCASURF>
0

> <UJIBADE>
0

> <ATHENSSUS>
0

> <UATHTARGETS>
0

$$$$

  Mrv1533009301520172D          

  0  0  0     0  0            999 V3000
M  V30 BEGIN CTAB
M  V30 COUNTS 12 13 0 0 0
M  V30 BEGIN ATOM
M  V30 1 N 5.7473 2.2297 0 0
M  V30 2 N 5.7473 -3.9303 0 0
M  V30 3 C 5.7473 4.4078 0 0
M  V30 4 C 6.8365 3.3187 0 0
M  V30 5 C 4.6585 3.3187 0 0
M  V30 6 C 5.7473 0.6897 0 0
M  V30 7 C 4.4137 -0.0803 0 0
M  V30 8 C 7.0812 -0.0803 0 0
M  V30 9 C 4.4137 -1.6203 0 0
M  V30 10 C 5.7473 -2.3903 0 0
M  V30 11 C 7.0812 -1.6203 0 0
M  V30 12 C 3.08 -2.3903 0 0
M  V30 END ATOM
M  V30 BEGIN BOND
M  V30 1 1 1 4
M  V30 2 1 1 5
M  V30 3 1 1 6
M  V30 4 1 2 10
M  V30 5 1 3 4
M  V30 6 1 3 5
M  V30 7 2 6 7
M  V30 8 1 6 8
M  V30 9 1 7 9
M  V30 10 2 8 11
M  V30 11 2 9 10
M  V30 12 1 9 12
M  V30 13 1 10 11
M  V30 END BOND
M  V30 END CTAB
M  END

> <INPUT>
C10H14N2

> <FOUND_BY>
MS Ready Formula

> <DTXCID_INDIVIDUAL_COMPONENT>
DTXCID90617085

> <FORMULA_INDIVIDUAL_COMPONENT>
C10H14N2

> <SMILES_INDIVIDUAL_COMPONENT>
CC1=C(N)C=CC(=C1)N1CCC1

> <MAPPED_DTXSID>
DTXSID90666336

> <PREFERRED_NAME_DTXSID>
4-(Azetidin-1-yl)-2-methylaniline

> <CASRN_DTXSID>
344405-56-7

> <FORMULA_MAPPED_DTXSID>
C10H14N2

> <SMILES_MAPPED_DTXSID>
CC1=C(N)C=CC(=C1)N1CCC1

> <MS_READY_SMILES>
CC1=C(N)C=CC(=C1)N1CCC1

> <INCHI_STRING_DTXCID>
InChI=1S/C10H14N2/c1-8-7-9(3-4-10(8)11)12-5-2-6-12/h3-4,7H,2,5-6,11H2,1H3

> <INCHIKEY_DTXCID>
MOSQPXDQOSPHTN-UHFFFAOYSA-N

> <MONOISOTOPIC_MASS_DTXCID>
162.115698459

> <EXPOCAST_MEDIAN_EXPOSURE_PREDICTION_MG/KG-BW/DAY>
-

> <EXPOCAST>
0

> <NHANES>
0

> <DATA_SOURCES>
1

> <TOXVAL_DATA>
0

> <TOXCAST_PERCENT_ACTIVE>
-

> <TOXCAST_NUMBER_OF_ASSAYS/TOTAL>
-

> <NUMBER_OF_PUBMED_ARTICLES>
-

> <PUBCHEM_DATA_SOURCES>
11

> <CPDAT_COUNT>
-

> <ATMOSPHERIC_HYDROXYLATION_RATE_(AOH)_CM3/MOLECULE*SEC_OPERA_PRED>
1.79052e-11

> <BIOCONCENTRATION_FACTOR_OPERA_PRED>
6.87805

> <BIODEGRADATION_HALF_LIFE_DAYS_DAYS_OPERA_PRED>
2.57966

> <BOILING_POINT_DEGC_OPERA_PRED>
308.624

> <HENRYS_LAW_ATM-M3/MOLE_OPERA_PRED>
1.63787e-07

> <OPERA_KM_DAYS_OPERA_PRED>
0.281126

> <OCTANOL_AIR_PARTITION_COEFF_LOGKOA_OPERA_PRED>
8.76279

> <SOIL_ADSORPTION_COEFFICIENT_KOC_L/KG_OPERA_PRED>
182.483

> <OCTANOL_WATER_PARTITION_LOGP_OPERA_PRED>
0.849426

> <MELTING_POINT_DEGC_OPERA_PRED>
142.588

> <VAPOR_PRESSURE_MMHG_OPERA_PRED>
0.000100309

> <WATER_SOLUBILITY_MOL/L_OPERA_PRED>
0.0155279

> <TEST_BCF_TEST_PRED>
20.2302

> <BOILING_POINT_DEGC_TEST_PRED>
272.414

> <DENSITY_G/CM^3_TEST_PRED>
1.086

> <FLASH_POINT_DEGC_TEST_PRED>
111.342

> <MELTING_POINT_DEGC_TEST_PRED>
93.084

> <SURFACE_TENSION_DYN/CM_TEST_PRED>
-

> <THERMAL_CONDUCTIVITY_MW/(M*K)_TEST_PRED>
160.981

> <VISCOSITY_CP_CP_TEST_PRED>
5.90201

> <VAPOR_PRESSURE_MMHG_TEST_PRED>
0.000792501

> <WATER_SOLUBILITY_MOL/L_TEST_PRED>
0.00515229

> <AEGLVALUES>
0

> <ALGALTOX>
0

> <ARCHEMICALS>
0

> <ATSDRLST>
0

> <BISPHENOLS>
0

> <OEHHA>
0

> <CERAPP>
0

> <FUNNAMES>
0

> <KWRSJERPS>
0

> <EPACONS>
0

> <IRIS>
0

> <EPAHFR>
0

> <EUCOSMETICS>
0

> <FRENCHLIST>
0

> <HEROMAP>
0

> <ITNANTIBIOTIC>
0

> <KEMIMARKET>
0

> <MASSBANKREF>
0

> <MASSBANKEUSP>
0

> <NEMILIST>
0

> <NATADB>
0

> <NIOSHIDLH>
0

> <NIOSHICSC>
0

> <NIOSHNPG>
0

> <NIOSHSKIN>
0

> <NORMANCT15>
0

> <SFISHFLUORO>
0

> <NORMANPRI>
0

> <NORMANEWS>
0

> <PFASTRIER>
0

> <SWISSPHARMA>
0

> <PPRTVWEB>
0

> <STOCKHOLM>
0

> <STOFFIDENT>
0

> <SCDM>
0

> <EAWAGSURF>
0

> <SWISSPEST>
0

> <TOX21SL>
0

> <TOXCAST>
0

> <TOXCAST_E1K>
0

> <TOXCAST_PH1V2>
0

> <TOXCAST_PH2>
0

> <TOXCAST_PH3>
0

> <TOXCAST_PHASEI>
0

> <TOXCAST_PHASEII>
0

> <TOXCAST_PHASEIII>
0

> <TRIRELEASE>
0

> <TSCASURF>
0

> <UJIBADE>
0

> <ATHENSSUS>
0

> <UATHTARGETS>
0

$$$$

  Mrv1533009301520172D          

  0  0  0     0  0            999 V3000
M  V30 BEGIN CTAB
M  V30 COUNTS 12 13 0 0 0
M  V30 BEGIN ATOM
M  V30 1 N 5.7473 2.2297 0 0
M  V30 2 N 5.7473 -3.9303 0 0
M  V30 3 C 6.8365 3.3187 0 0
M  V30 4 C 4.6585 3.3187 0 0
M  V30 5 C 5.7473 4.4078 0 0
M  V30 6 C 5.7473 0.6897 0 0
M  V30 7 C 4.4137 -0.0803 0 0
M  V30 8 C 7.0812 -0.0803 0 0
M  V30 9 C 4.4137 -1.6203 0 0
M  V30 10 C 7.0812 -1.6203 0 0
M  V30 11 C 3.08 0.6897 0 0
M  V30 12 C 5.7473 -2.3903 0 0
M  V30 END ATOM
M  V30 BEGIN BOND
M  V30 1 1 1 3
M  V30 2 1 1 4
M  V30 3 1 1 6
M  V30 4 1 2 12
M  V30 5 1 3 5
M  V30 6 1 4 5
M  V30 7 2 6 7
M  V30 8 1 6 8
M  V30 9 1 7 9
M  V30 10 1 7 11
M  V30 11 2 8 10
M  V30 12 2 9 12
M  V30 13 1 10 12
M  V30 END BOND
M  V30 END CTAB
M  END

> <INPUT>
C10H14N2

> <FOUND_BY>
MS Ready Formula

> <DTXCID_INDIVIDUAL_COMPONENT>
DTXCID50617086

> <FORMULA_INDIVIDUAL_COMPONENT>
C10H14N2

> <SMILES_INDIVIDUAL_COMPONENT>
CC1=C(C=CC(N)=C1)N1CCC1

> <MAPPED_DTXSID>
DTXSID50666337

> <PREFERRED_NAME_DTXSID>
4-(Azetidin-1-yl)-3-methylaniline

> <CASRN_DTXSID>
344405-53-4

> <FORMULA_MAPPED_DTXSID>
C10H14N2

> <SMILES_MAPPED_DTXSID>
CC1=C(C=CC(N)=C1)N1CCC1

> <MS_READY_SMILES>
CC1=C(C=CC(N)=C1)N1CCC1

> <INCHI_STRING_DTXCID>
InChI=1S/C10H14N2/c1-8-7-9(11)3-4-10(8)12-5-2-6-12/h3-4,7H,2,5-6,11H2,1H3

> <INCHIKEY_DTXCID>
IPDBDZJRQKUCII-UHFFFAOYSA-N

> <MONOISOTOPIC_MASS_DTXCID>
162.115698459

> <EXPOCAST_MEDIAN_EXPOSURE_PREDICTION_MG/KG-BW/DAY>
-

> <EXPOCAST>
0

> <NHANES>
0

> <DATA_SOURCES>
1

> <TOXVAL_DATA>
0

> <TOXCAST_PERCENT_ACTIVE>
-

> <TOXCAST_NUMBER_OF_ASSAYS/TOTAL>
-

> <NUMBER_OF_PUBMED_ARTICLES>
-

> <PUBCHEM_DATA_SOURCES>
11

> <CPDAT_COUNT>
-

> <ATMOSPHERIC_HYDROXYLATION_RATE_(AOH)_CM3/MOLECULE*SEC_OPERA_PRED>
1.79446e-11

> <BIOCONCENTRATION_FACTOR_OPERA_PRED>
11.6008

> <BIODEGRADATION_HALF_LIFE_DAYS_DAYS_OPERA_PRED>
3.16756

> <BOILING_POINT_DEGC_OPERA_PRED>
308.343

> <HENRYS_LAW_ATM-M3/MOLE_OPERA_PRED>
1.63494e-07

> <OPERA_KM_DAYS_OPERA_PRED>
0.158852

> <OCTANOL_AIR_PARTITION_COEFF_LOGKOA_OPERA_PRED>
8.76279

> <SOIL_ADSORPTION_COEFFICIENT_KOC_L/KG_OPERA_PRED>
186.608

> <OCTANOL_WATER_PARTITION_LOGP_OPERA_PRED>
1.808

> <MELTING_POINT_DEGC_OPERA_PRED>
142.237

> <VAPOR_PRESSURE_MMHG_OPERA_PRED>
0.000101856

> <WATER_SOLUBILITY_MOL/L_OPERA_PRED>
0.0155613

> <TEST_BCF_TEST_PRED>
20.7014

> <BOILING_POINT_DEGC_TEST_PRED>
272.468

> <DENSITY_G/CM^3_TEST_PRED>
1.086

> <FLASH_POINT_DEGC_TEST_PRED>
111.342

> <MELTING_POINT_DEGC_TEST_PRED>
93.084

> <SURFACE_TENSION_DYN/CM_TEST_PRED>
-

> <THERMAL_CONDUCTIVITY_MW/(M*K)_TEST_PRED>
160.829

> <VISCOSITY_CP_CP_TEST_PRED>
6.56145

> <VAPOR_PRESSURE_MMHG_TEST_PRED>
0.000767361

> <WATER_SOLUBILITY_MOL/L_TEST_PRED>
0.00505825

> <AEGLVALUES>
0

> <ALGALTOX>
0

> <ARCHEMICALS>
0

> <ATSDRLST>
0

> <BISPHENOLS>
0

> <OEHHA>
0

> <CERAPP>
0

> <FUNNAMES>
0

> <KWRSJERPS>
0

> <EPACONS>
0

> <IRIS>
0

> <EPAHFR>
0

> <EUCOSMETICS>
0

> <FRENCHLIST>
0

> <HEROMAP>
0

> <ITNANTIBIOTIC>
0

> <KEMIMARKET>
0

> <MASSBANKREF>
0

> <MASSBANKEUSP>
0

> <NEMILIST>
0

> <NATADB>
0

> <NIOSHIDLH>
0

> <NIOSHICSC>
0

> <NIOSHNPG>
0

> <NIOSHSKIN>
0

> <NORMANCT15>
0

> <SFISHFLUORO>
0

> <NORMANPRI>
0

> <NORMANEWS>
0

> <PFASTRIER>
0

> <SWISSPHARMA>
0

> <PPRTVWEB>
0

> <STOCKHOLM>
0

> <STOFFIDENT>
0

> <SCDM>
0

> <EAWAGSURF>
0

> <SWISSPEST>
0

> <TOX21SL>
0

> <TOXCAST>
0

> <TOXCAST_E1K>
0

> <TOXCAST_PH1V2>
0

> <TOXCAST_PH2>
0

> <TOXCAST_PH3>
0

> <TOXCAST_PHASEI>
0

> <TOXCAST_PHASEII>
0

> <TOXCAST_PHASEIII>
0

> <TRIRELEASE>
0

> <TSCASURF>
0

> <UJIBADE>
0

> <ATHENSSUS>
0

> <UATHTARGETS>
0

$$$$
620058
  Mrv1611109291617052D          

  0  0  0     0  0            999 V3000
M  V30 BEGIN CTAB
M  V30 COUNTS 12 12 0 0 0
M  V30 BEGIN ATOM
M  V30 1 N 0.8044 1.9594 0 0
M  V30 2 C 0.8044 0.4194 0 0
M  V30 3 C 2.1381 -0.3506 0 0
M  V30 4 C 3.4717 0.4194 0 0
M  V30 5 C 4.8053 -0.3506 0 0
M  V30 6 N 3.4717 1.9594 0 0
M  V30 7 C 2.1381 -1.8906 0 0
M  V30 8 C 0.8044 -2.6606 0 0
M  V30 9 C -0.5293 -1.8906 0 0
M  V30 10 C -0.5293 -0.3506 0 0
M  V30 11 C -1.863 0.4194 0 0
M  V30 12 C -3.1967 -0.3506 0 0
M  V30 END ATOM
M  V30 BEGIN BOND
M  V30 1 1 1 2
M  V30 2 2 2 3
M  V30 3 1 3 4
M  V30 4 1 4 5
M  V30 5 2 4 6
M  V30 6 1 3 7
M  V30 7 2 7 8
M  V30 8 1 8 9
M  V30 9 2 9 10
M  V30 10 1 10 2
M  V30 11 1 10 11
M  V30 12 1 11 12
M  V30 END BOND
M  V30 END CTAB
M  END

> <INPUT>
C10H14N2

> <FOUND_BY>
MS Ready Formula

> <DTXCID_INDIVIDUAL_COMPONENT>
DTXCID50887429

> <FORMULA_INDIVIDUAL_COMPONENT>
C10H14N2

> <SMILES_INDIVIDUAL_COMPONENT>
CCC1=CC=CC(C(C)=N)=C1N

> <MAPPED_DTXSID>
DTXSID10669309

> <PREFERRED_NAME_DTXSID>
2-Ethanimidoyl-6-ethylaniline

> <CASRN_DTXSID>
148121-17-9

> <FORMULA_MAPPED_DTXSID>
C10H14N2

> <SMILES_MAPPED_DTXSID>
CCC1=C(N)C(=CC=C1)C(C)=N

> <MS_READY_SMILES>
CCC1=CC=CC(C(C)=N)=C1N

> <INCHI_STRING_DTXCID>
InChI=1S/C10H14N2/c1-3-8-5-4-6-9(7(2)11)10(8)12/h4-6,11H,3,12H2,1-2H3

> <INCHIKEY_DTXCID>
DANNHLPYEHMEPI-UHFFFAOYSA-N

> <MONOISOTOPIC_MASS_DTXCID>
162.115698459

> <EXPOCAST_MEDIAN_EXPOSURE_PREDICTION_MG/KG-BW/DAY>
-

> <EXPOCAST>
0

> <NHANES>
0

> <DATA_SOURCES>
1

> <TOXVAL_DATA>
0

> <TOXCAST_PERCENT_ACTIVE>
-

> <TOXCAST_NUMBER_OF_ASSAYS/TOTAL>
-

> <NUMBER_OF_PUBMED_ARTICLES>
-

> <PUBCHEM_DATA_SOURCES>
9

> <CPDAT_COUNT>
-

> <ATMOSPHERIC_HYDROXYLATION_RATE_(AOH)_CM3/MOLECULE*SEC_OPERA_PRED>
1.74963e-11

> <BIOCONCENTRATION_FACTOR_OPERA_PRED>
18.8607

> <BIODEGRADATION_HALF_LIFE_DAYS_DAYS_OPERA_PRED>
2.54394

> <BOILING_POINT_DEGC_OPERA_PRED>
263.988

> <HENRYS_LAW_ATM-M3/MOLE_OPERA_PRED>
3.13706e-08

> <OPERA_KM_DAYS_OPERA_PRED>
0.173443

> <OCTANOL_AIR_PARTITION_COEFF_LOGKOA_OPERA_PRED>
7.84264

> <SOIL_ADSORPTION_COEFFICIENT_KOC_L/KG_OPERA_PRED>
69.3604

> <OCTANOL_WATER_PARTITION_LOGP_OPERA_PRED>
0.803893

> <MELTING_POINT_DEGC_OPERA_PRED>
105.579

> <VAPOR_PRESSURE_MMHG_OPERA_PRED>
0.00176837

> <WATER_SOLUBILITY_MOL/L_OPERA_PRED>
0.00373996

> <TEST_BCF_TEST_PRED>
-

> <BOILING_POINT_DEGC_TEST_PRED>
-

> <DENSITY_G/CM^3_TEST_PRED>
-

> <FLASH_POINT_DEGC_TEST_PRED>
-

> <MELTING_POINT_DEGC_TEST_PRED>
-

> <SURFACE_TENSION_DYN/CM_TEST_PRED>
-

> <THERMAL_CONDUCTIVITY_MW/(M*K)_TEST_PRED>
-

> <VISCOSITY_CP_CP_TEST_PRED>
-

> <VAPOR_PRESSURE_MMHG_TEST_PRED>
-

> <WATER_SOLUBILITY_MOL/L_TEST_PRED>
-

> <AEGLVALUES>
0

> <ALGALTOX>
0

> <ARCHEMICALS>
0

> <ATSDRLST>
0

> <BISPHENOLS>
0

> <OEHHA>
0

> <CERAPP>
0

> <FUNNAMES>
0

> <KWRSJERPS>
0

> <EPACONS>
0

> <IRIS>
0

> <EPAHFR>
0

> <EUCOSMETICS>
0

> <FRENCHLIST>
0

> <HEROMAP>
0

> <ITNANTIBIOTIC>
0

> <KEMIMARKET>
0

> <MASSBANKREF>
0

> <MASSBANKEUSP>
0

> <NEMILIST>
0

> <NATADB>
0

> <NIOSHIDLH>
0

> <NIOSHICSC>
0

> <NIOSHNPG>
0

> <NIOSHSKIN>
0

> <NORMANCT15>
0

> <SFISHFLUORO>
0

> <NORMANPRI>
0

> <NORMANEWS>
0

> <PFASTRIER>
0

> <SWISSPHARMA>
0

> <PPRTVWEB>
0

> <STOCKHOLM>
0

> <STOFFIDENT>
0

> <SCDM>
0

> <EAWAGSURF>
0

> <SWISSPEST>
0

> <TOX21SL>
0

> <TOXCAST>
0

> <TOXCAST_E1K>
0

> <TOXCAST_PH1V2>
0

> <TOXCAST_PH2>
0

> <TOXCAST_PH3>
0

> <TOXCAST_PHASEI>
0

> <TOXCAST_PHASEII>
0

> <TOXCAST_PHASEIII>
0

> <TRIRELEASE>
0

> <TSCASURF>
0

> <UJIBADE>
0

> <ATHENSSUS>
0

> <UATHTARGETS>
0

$$$$
623201
  Mrv1611109291617102D          

  0  0  0     0  0            999 V3000
M  V30 BEGIN CTAB
M  V30 COUNTS 12 13 0 0 0
M  V30 BEGIN ATOM
M  V30 1 N 3.8144 -0.9701 0 0
M  V30 2 C 2.4807 -1.7401 0 0
M  V30 3 C 1.147 -0.9701 0 0
M  V30 4 C -0.1866 -1.7401 0 0
M  V30 5 C -0.1866 -3.2801 0 0
M  V30 6 C -1.5203 -0.9701 0 0
M  V30 7 C -1.5203 0.5699 0 0
M  V30 8 C -0.1866 1.3399 0 0
M  V30 9 N 1.147 0.5699 0 0
M  V30 10 C 2.4807 -3.2801 0 0
M  V30 11 C 3.2507 -4.6138 0 0
M  V30 12 C 1.7107 -4.6138 0 0
M  V30 END ATOM
M  V30 BEGIN BOND
M  V30 1 1 1 2
M  V30 2 1 2 3
M  V30 3 2 3 4
M  V30 4 1 4 5
M  V30 5 1 4 6
M  V30 6 2 6 7
M  V30 7 1 7 8
M  V30 8 2 8 9
M  V30 9 1 9 3
M  V30 10 1 2 10
M  V30 11 1 10 11
M  V30 12 1 11 12
M  V30 13 1 12 10
M  V30 END BOND
M  V30 END CTAB
M  END

> <INPUT>
C10H14N2

> <FOUND_BY>
MS Ready Formula

> <DTXCID_INDIVIDUAL_COMPONENT>
DTXCID00888340

> <FORMULA_INDIVIDUAL_COMPONENT>
C10H14N2

> <SMILES_INDIVIDUAL_COMPONENT>
CC1=C(N=CC=C1)C(N)C1CC1

> <MAPPED_DTXSID>
DTXSID90672452

> <PREFERRED_NAME_DTXSID>
1-Cyclopropyl-1-(3-methylpyridin-2-yl)methanamine

> <CASRN_DTXSID>
1015846-65-7

> <FORMULA_MAPPED_DTXSID>
C10H14N2

> <SMILES_MAPPED_DTXSID>
CC1=C(N=CC=C1)C(N)C1CC1

> <MS_READY_SMILES>
CC1=C(N=CC=C1)C(N)C1CC1

> <INCHI_STRING_DTXCID>
InChI=1S/C10H14N2/c1-7-3-2-6-12-10(7)9(11)8-4-5-8/h2-3,6,8-9H,4-5,11H2,1H3

> <INCHIKEY_DTXCID>
LBRBZJUBGVFGGD-UHFFFAOYSA-N

> <MONOISOTOPIC_MASS_DTXCID>
162.115698459

> <EXPOCAST_MEDIAN_EXPOSURE_PREDICTION_MG/KG-BW/DAY>
-

> <EXPOCAST>
0

> <NHANES>
0

> <DATA_SOURCES>
1

> <TOXVAL_DATA>
0

> <TOXCAST_PERCENT_ACTIVE>
-

> <TOXCAST_NUMBER_OF_ASSAYS/TOTAL>
-

> <NUMBER_OF_PUBMED_ARTICLES>
-

> <PUBCHEM_DATA_SOURCES>
13

> <CPDAT_COUNT>
-

> <ATMOSPHERIC_HYDROXYLATION_RATE_(AOH)_CM3/MOLECULE*SEC_OPERA_PRED>
1.53601e-11

> <BIOCONCENTRATION_FACTOR_OPERA_PRED>
5.6682

> <BIODEGRADATION_HALF_LIFE_DAYS_DAYS_OPERA_PRED>
2.57089

> <BOILING_POINT_DEGC_OPERA_PRED>
285.656

> <HENRYS_LAW_ATM-M3/MOLE_OPERA_PRED>
2.6836e-07

> <OPERA_KM_DAYS_OPERA_PRED>
0.166743

> <OCTANOL_AIR_PARTITION_COEFF_LOGKOA_OPERA_PRED>
8.42049

> <SOIL_ADSORPTION_COEFFICIENT_KOC_L/KG_OPERA_PRED>
123.264

> <OCTANOL_WATER_PARTITION_LOGP_OPERA_PRED>
1.09951

> <MELTING_POINT_DEGC_OPERA_PRED>
137.222

> <VAPOR_PRESSURE_MMHG_OPERA_PRED>
0.0172917

> <WATER_SOLUBILITY_MOL/L_OPERA_PRED>
0.00672077

> <TEST_BCF_TEST_PRED>
27.6694

> <BOILING_POINT_DEGC_TEST_PRED>
237.805

> <DENSITY_G/CM^3_TEST_PRED>
1.092

> <FLASH_POINT_DEGC_TEST_PRED>
112.963

> <MELTING_POINT_DEGC_TEST_PRED>
74.621

> <SURFACE_TENSION_DYN/CM_TEST_PRED>
32.845

> <THERMAL_CONDUCTIVITY_MW/(M*K)_TEST_PRED>
148.607

> <VISCOSITY_CP_CP_TEST_PRED>
10.1391

> <VAPOR_PRESSURE_MMHG_TEST_PRED>
0.000517607

> <WATER_SOLUBILITY_MOL/L_TEST_PRED>
0.00628058

> <AEGLVALUES>
0

> <ALGALTOX>
0

> <ARCHEMICALS>
0

> <ATSDRLST>
0

> <BISPHENOLS>
0

> <OEHHA>
0

> <CERAPP>
0

> <FUNNAMES>
0

> <KWRSJERPS>
0

> <EPACONS>
0

> <IRIS>
0

> <EPAHFR>
0

> <EUCOSMETICS>
0

> <FRENCHLIST>
0

> <HEROMAP>
0

> <ITNANTIBIOTIC>
0

> <KEMIMARKET>
0

> <MASSBANKREF>
0

> <MASSBANKEUSP>
0

> <NEMILIST>
0

> <NATADB>
0

> <NIOSHIDLH>
0

> <NIOSHICSC>
0

> <NIOSHNPG>
0

> <NIOSHSKIN>
0

> <NORMANCT15>
0

> <SFISHFLUORO>
0

> <NORMANPRI>
0

> <NORMANEWS>
0

> <PFASTRIER>
0

> <SWISSPHARMA>
0

> <PPRTVWEB>
0

> <STOCKHOLM>
0

> <STOFFIDENT>
0

> <SCDM>
0

> <EAWAGSURF>
0

> <SWISSPEST>
0

> <TOX21SL>
0

> <TOXCAST>
0

> <TOXCAST_E1K>
0

> <TOXCAST_PH1V2>
0

> <TOXCAST_PH2>
0

> <TOXCAST_PH3>
0

> <TOXCAST_PHASEI>
0

> <TOXCAST_PHASEII>
0

> <TOXCAST_PHASEIII>
0

> <TRIRELEASE>
0

> <TSCASURF>
0

> <UJIBADE>
0

> <ATHENSSUS>
0

> <UATHTARGETS>
0

$$$$

  Mrv1611108211713492D          

  0  0  0     0  0            999 V3000
M  V30 BEGIN CTAB
M  V30 COUNTS 12 13 0 0 0
M  V30 BEGIN ATOM
M  V30 1 N 5.3343 -2.0521 0 0
M  V30 2 C 4.0583 -2.9401 0 0
M  V30 3 C 2.6507 -2.3152 0 0
M  V30 4 N 1.3352 0 0 0
M  V30 5 C 2.6507 -0.7762 0 0
M  V30 6 C 6.5774 -2.927 0 0
M  V30 7 C 5.3343 -0.4801 0 0
M  V30 8 C 4.5581 -4.4069 0 0
M  V30 9 C 6.1301 -4.4069 0 0
M  V30 10 C 1.3352 -3.0717 0 0
M  V30 11 C 0 -0.7565 0 0
M  V30 12 C 0 -2.3152 0 0
M  V30 END ATOM
M  V30 BEGIN BOND
M  V30 1 1 1 2
M  V30 2 1 1 6
M  V30 3 1 1 7
M  V30 4 1 2 3
M  V30 5 1 2 8
M  V30 6 2 3 5
M  V30 7 1 3 10
M  V30 8 1 4 5
M  V30 9 2 4 11
M  V30 10 1 6 9
M  V30 11 1 8 9
M  V30 12 2 10 12
M  V30 13 1 11 12
M  V30 END BOND
M  V30 END CTAB
M  END

> <INPUT>
C10H14N2

> <FOUND_BY>
MS Ready Formula

> <DTXCID_INDIVIDUAL_COMPONENT>
DTXCID9028128

> <FORMULA_INDIVIDUAL_COMPONENT>
C10H14N2

> <SMILES_INDIVIDUAL_COMPONENT>
CN1CCCC1C1=CN=CC=C1

> <MAPPED_DTXSID>
DTXSID80676247

> <PREFERRED_NAME_DTXSID>
3-[1-(~13~C,~2~H_3_)Methylpyrrolidin-2-yl]pyridine

> <CASRN_DTXSID>
909014-86-4

> <FORMULA_MAPPED_DTXSID>
C9[13C]H11D3N2

> <SMILES_MAPPED_DTXSID>
[2H][13C]([2H])([2H])N1CCCC1C1=CN=CC=C1

> <MS_READY_SMILES>
-

> <INCHI_STRING_DTXCID>
InChI=1S/C10H14N2/c1-12-7-3-5-10(12)9-4-2-6-11-8-9/h2,4,6,8,10H,3,5,7H2,1H3

> <INCHIKEY_DTXCID>
SNICXCGAKADSCV-UHFFFAOYSA-N

> <MONOISOTOPIC_MASS_DTXCID>
162.115698459

> <EXPOCAST_MEDIAN_EXPOSURE_PREDICTION_MG/KG-BW/DAY>
-

> <EXPOCAST>
0

> <NHANES>
0

> <DATA_SOURCES>
1

> <TOXVAL_DATA>
0

> <TOXCAST_PERCENT_ACTIVE>
-

> <TOXCAST_NUMBER_OF_ASSAYS/TOTAL>
-

> <NUMBER_OF_PUBMED_ARTICLES>
-

> <PUBCHEM_DATA_SOURCES>
7

> <CPDAT_COUNT>
-

> <ATMOSPHERIC_HYDROXYLATION_RATE_(AOH)_CM3/MOLECULE*SEC_OPERA_PRED>
4.3164e-11

> <BIOCONCENTRATION_FACTOR_OPERA_PRED>
6.524

> <BIODEGRADATION_HALF_LIFE_DAYS_DAYS_OPERA_PRED>
3.36018

> <BOILING_POINT_DEGC_OPERA_PRED>
253.418

> <HENRYS_LAW_ATM-M3/MOLE_OPERA_PRED>
6.65993e-06

> <OPERA_KM_DAYS_OPERA_PRED>
5.93649

> <OCTANOL_AIR_PARTITION_COEFF_LOGKOA_OPERA_PRED>
5.80576

> <SOIL_ADSORPTION_COEFFICIENT_KOC_L/KG_OPERA_PRED>
110.746

> <OCTANOL_WATER_PARTITION_LOGP_OPERA_PRED>
1.17766

> <MELTING_POINT_DEGC_OPERA_PRED>
-34.4392

> <VAPOR_PRESSURE_MMHG_OPERA_PRED>
0.013088

> <WATER_SOLUBILITY_MOL/L_OPERA_PRED>
4.51047

> <TEST_BCF_TEST_PRED>
11.995

> <BOILING_POINT_DEGC_TEST_PRED>
244.899

> <DENSITY_G/CM^3_TEST_PRED>
1.03

> <FLASH_POINT_DEGC_TEST_PRED>
95.541

> <MELTING_POINT_DEGC_TEST_PRED>
18.147

> <SURFACE_TENSION_DYN/CM_TEST_PRED>
36.302

> <THERMAL_CONDUCTIVITY_MW/(M*K)_TEST_PRED>
143.221

> <VISCOSITY_CP_CP_TEST_PRED>
7.2778

> <VAPOR_PRESSURE_MMHG_TEST_PRED>
0.00436516

> <WATER_SOLUBILITY_MOL/L_TEST_PRED>
0.0799834

> <AEGLVALUES>
0

> <ALGALTOX>
0

> <ARCHEMICALS>
0

> <ATSDRLST>
0

> <BISPHENOLS>
0

> <OEHHA>
0

> <CERAPP>
0

> <FUNNAMES>
0

> <KWRSJERPS>
0

> <EPACONS>
0

> <IRIS>
0

> <EPAHFR>
0

> <EUCOSMETICS>
0

> <FRENCHLIST>
0

> <HEROMAP>
0

> <ITNANTIBIOTIC>
0

> <KEMIMARKET>
0

> <MASSBANKREF>
0

> <MASSBANKEUSP>
0

> <NEMILIST>
0

> <NATADB>
0

> <NIOSHIDLH>
0

> <NIOSHICSC>
0

> <NIOSHNPG>
0

> <NIOSHSKIN>
0

> <NORMANCT15>
0

> <SFISHFLUORO>
0

> <NORMANPRI>
0

> <NORMANEWS>
0

> <PFASTRIER>
0

> <SWISSPHARMA>
0

> <PPRTVWEB>
0

> <STOCKHOLM>
0

> <STOFFIDENT>
0

> <SCDM>
0

> <EAWAGSURF>
0

> <SWISSPEST>
0

> <TOX21SL>
0

> <TOXCAST>
0

> <TOXCAST_E1K>
0

> <TOXCAST_PH1V2>
0

> <TOXCAST_PH2>
0

> <TOXCAST_PH3>
0

> <TOXCAST_PHASEI>
0

> <TOXCAST_PHASEII>
0

> <TOXCAST_PHASEIII>
0

> <TRIRELEASE>
0

> <TSCASURF>
0

> <UJIBADE>
0

> <ATHENSSUS>
0

> <UATHTARGETS>
0

$$$$
629757
  Mrv1611109291617222D          

  0  0  0     0  0            999 V3000
M  V30 BEGIN CTAB
M  V30 COUNTS 12 13 0 0 0
M  V30 BEGIN ATOM
M  V30 1 N 3.6134 -1.0464 0 0
M  V30 2 C 2.2797 -1.8164 0 0
M  V30 3 C 0.946 -1.0464 0 0
M  V30 4 C -0.3876 -1.8164 0 0
M  V30 5 C -1.7213 -1.0464 0 0
M  V30 6 C -3.055 -1.8164 0 0
M  V30 7 C -1.7213 0.4936 0 0
M  V30 8 C -0.3876 1.2636 0 0
M  V30 9 N 0.946 0.4936 0 0
M  V30 10 C 2.2797 -3.3564 0 0
M  V30 11 C 3.0497 -4.69 0 0
M  V30 12 C 1.5097 -4.69 0 0
M  V30 END ATOM
M  V30 BEGIN BOND
M  V30 1 1 1 2
M  V30 2 1 2 3
M  V30 3 2 3 4
M  V30 4 1 4 5
M  V30 5 1 5 6
M  V30 6 2 5 7
M  V30 7 1 7 8
M  V30 8 2 8 9
M  V30 9 1 9 3
M  V30 10 1 2 10
M  V30 11 1 10 11
M  V30 12 1 11 12
M  V30 13 1 12 10
M  V30 END BOND
M  V30 END CTAB
M  END

> <INPUT>
C10H14N2

> <FOUND_BY>
MS Ready Formula

> <DTXCID_INDIVIDUAL_COMPONENT>
DTXCID50889822

> <FORMULA_INDIVIDUAL_COMPONENT>
C10H14N2

> <SMILES_INDIVIDUAL_COMPONENT>
CC1=CC=NC(=C1)C(N)C1CC1

> <MAPPED_DTXSID>
DTXSID50679008

> <PREFERRED_NAME_DTXSID>
1-Cyclopropyl-1-(4-methylpyridin-2-yl)methanamine--hydrogen chloride (1/2)

> <CASRN_DTXSID>
1203308-27-3

> <FORMULA_MAPPED_DTXSID>
C10H16Cl2N2

> <SMILES_MAPPED_DTXSID>
Cl.Cl.CC1=CC(=NC=C1)C(N)C1CC1

> <MS_READY_SMILES>
CC1=CC=NC(=C1)C(N)C1CC1

> <INCHI_STRING_DTXCID>
InChI=1S/C10H14N2/c1-7-4-5-12-9(6-7)10(11)8-2-3-8/h4-6,8,10H,2-3,11H2,1H3

> <INCHIKEY_DTXCID>
XUWOXHQFBDZVDD-UHFFFAOYSA-N

> <MONOISOTOPIC_MASS_DTXCID>
162.115698459

> <EXPOCAST_MEDIAN_EXPOSURE_PREDICTION_MG/KG-BW/DAY>
-

> <EXPOCAST>
0

> <NHANES>
0

> <DATA_SOURCES>
1

> <TOXVAL_DATA>
0

> <TOXCAST_PERCENT_ACTIVE>
-

> <TOXCAST_NUMBER_OF_ASSAYS/TOTAL>
-

> <NUMBER_OF_PUBMED_ARTICLES>
-

> <PUBCHEM_DATA_SOURCES>
14

> <CPDAT_COUNT>
-

> <ATMOSPHERIC_HYDROXYLATION_RATE_(AOH)_CM3/MOLECULE*SEC_OPERA_PRED>
1.53646e-11

> <BIOCONCENTRATION_FACTOR_OPERA_PRED>
5.66452

> <BIODEGRADATION_HALF_LIFE_DAYS_DAYS_OPERA_PRED>
2.55878

> <BOILING_POINT_DEGC_OPERA_PRED>
285.65

> <HENRYS_LAW_ATM-M3/MOLE_OPERA_PRED>
2.67503e-07

> <OPERA_KM_DAYS_OPERA_PRED>
0.164203

> <OCTANOL_AIR_PARTITION_COEFF_LOGKOA_OPERA_PRED>
8.42049

> <SOIL_ADSORPTION_COEFFICIENT_KOC_L/KG_OPERA_PRED>
129.061

> <OCTANOL_WATER_PARTITION_LOGP_OPERA_PRED>
1.09599

> <MELTING_POINT_DEGC_OPERA_PRED>
137.034

> <VAPOR_PRESSURE_MMHG_OPERA_PRED>
0.0161186

> <WATER_SOLUBILITY_MOL/L_OPERA_PRED>
0.00300849

> <TEST_BCF_TEST_PRED>
25.8226

> <BOILING_POINT_DEGC_TEST_PRED>
240.237

> <DENSITY_G/CM^3_TEST_PRED>
1.092

> <FLASH_POINT_DEGC_TEST_PRED>
112.963

> <MELTING_POINT_DEGC_TEST_PRED>
73.034

> <SURFACE_TENSION_DYN/CM_TEST_PRED>
32.845

> <THERMAL_CONDUCTIVITY_MW/(M*K)_TEST_PRED>
148.837

> <VISCOSITY_CP_CP_TEST_PRED>
8.45279

> <VAPOR_PRESSURE_MMHG_TEST_PRED>
0.000537032

> <WATER_SOLUBILITY_MOL/L_TEST_PRED>
0.00903649

> <AEGLVALUES>
0

> <ALGALTOX>
0

> <ARCHEMICALS>
0

> <ATSDRLST>
0

> <BISPHENOLS>
0

> <OEHHA>
0

> <CERAPP>
0

> <FUNNAMES>
0

> <KWRSJERPS>
0

> <EPACONS>
0

> <IRIS>
0

> <EPAHFR>
0

> <EUCOSMETICS>
0

> <FRENCHLIST>
0

> <HEROMAP>
0

> <ITNANTIBIOTIC>
0

> <KEMIMARKET>
0

> <MASSBANKREF>
0

> <MASSBANKEUSP>
0

> <NEMILIST>
0

> <NATADB>
0

> <NIOSHIDLH>
0

> <NIOSHICSC>
0

> <NIOSHNPG>
0

> <NIOSHSKIN>
0

> <NORMANCT15>
0

> <SFISHFLUORO>
0

> <NORMANPRI>
0

> <NORMANEWS>
0

> <PFASTRIER>
0

> <SWISSPHARMA>
0

> <PPRTVWEB>
0

> <STOCKHOLM>
0

> <STOFFIDENT>
0

> <SCDM>
0

> <EAWAGSURF>
0

> <SWISSPEST>
0

> <TOX21SL>
0

> <TOXCAST>
0

> <TOXCAST_E1K>
0

> <TOXCAST_PH1V2>
0

> <TOXCAST_PH2>
0

> <TOXCAST_PH3>
0

> <TOXCAST_PHASEI>
0

> <TOXCAST_PHASEII>
0

> <TOXCAST_PHASEIII>
0

> <TRIRELEASE>
0

> <TSCASURF>
0

> <UJIBADE>
0

> <ATHENSSUS>
0

> <UATHTARGETS>
0

$$$$
630741
  Mrv1611109291617242D          

  0  0  0     0  0            999 V3000
M  V30 BEGIN CTAB
M  V30 COUNTS 12 13 0 0 0
M  V30 BEGIN ATOM
M  V30 1 N 0.6422 -3.599 0 0
M  V30 2 C -0.5618 -2.6389 0 0
M  V30 3 C -1.8955 -3.4089 0 0
M  V30 4 C -3.2292 -2.6389 0 0
M  V30 5 C -3.2292 -1.0989 0 0
M  V30 6 C -1.8955 -0.3289 0 0
M  V30 7 C -0.5618 -1.0989 0 0
M  V30 8 C 0.6422 -0.1387 0 0
M  V30 9 N 0.2995 1.3627 0 0
M  V30 10 C 2.1436 -0.4814 0 0
M  V30 11 C 2.8117 -1.8689 0 0
M  V30 12 C 2.1436 -3.2564 0 0
M  V30 END ATOM
M  V30 BEGIN BOND
M  V30 1 1 1 2
M  V30 2 2 2 3
M  V30 3 1 3 4
M  V30 4 2 4 5
M  V30 5 1 5 6
M  V30 6 2 6 7
M  V30 7 1 7 2
M  V30 8 1 7 8
M  V30 9 1 8 9
M  V30 10 1 8 10
M  V30 11 1 10 11
M  V30 12 1 11 12
M  V30 13 1 12 1
M  V30 END BOND
M  V30 END CTAB
M  END

> <INPUT>
C10H14N2

> <FOUND_BY>
MS Ready Formula

> <DTXCID_INDIVIDUAL_COMPONENT>
DTXCID70890056

> <FORMULA_INDIVIDUAL_COMPONENT>
C10H14N2

> <SMILES_INDIVIDUAL_COMPONENT>
NC1CCCNC2=CC=CC=C12

> <MAPPED_DTXSID>
DTXSID00679992

> <PREFERRED_NAME_DTXSID>
2,3,4,5-Tetrahydro-1H-1-benzazepin-5-amine

> <CASRN_DTXSID>
885275-16-1

> <FORMULA_MAPPED_DTXSID>
C10H14N2

> <SMILES_MAPPED_DTXSID>
NC1CCCNC2=CC=CC=C12

> <MS_READY_SMILES>
NC1CCCNC2=CC=CC=C12

> <INCHI_STRING_DTXCID>
InChI=1S/C10H14N2/c11-9-5-3-7-12-10-6-2-1-4-8(9)10/h1-2,4,6,9,12H,3,5,7,11H2

> <INCHIKEY_DTXCID>
HWCKTLUUWDOMTP-UHFFFAOYSA-N

> <MONOISOTOPIC_MASS_DTXCID>
162.115698459

> <EXPOCAST_MEDIAN_EXPOSURE_PREDICTION_MG/KG-BW/DAY>
-

> <EXPOCAST>
0

> <NHANES>
0

> <DATA_SOURCES>
1

> <TOXVAL_DATA>
0

> <TOXCAST_PERCENT_ACTIVE>
-

> <TOXCAST_NUMBER_OF_ASSAYS/TOTAL>
-

> <NUMBER_OF_PUBMED_ARTICLES>
-

> <PUBCHEM_DATA_SOURCES>
23

> <CPDAT_COUNT>
-

> <ATMOSPHERIC_HYDROXYLATION_RATE_(AOH)_CM3/MOLECULE*SEC_OPERA_PRED>
2.60554e-11

> <BIOCONCENTRATION_FACTOR_OPERA_PRED>
6.76858

> <BIODEGRADATION_HALF_LIFE_DAYS_DAYS_OPERA_PRED>
3.76803

> <BOILING_POINT_DEGC_OPERA_PRED>
261.284

> <HENRYS_LAW_ATM-M3/MOLE_OPERA_PRED>
6.62507e-08

> <OPERA_KM_DAYS_OPERA_PRED>
0.176492

> <OCTANOL_AIR_PARTITION_COEFF_LOGKOA_OPERA_PRED>
7.9582

> <SOIL_ADSORPTION_COEFFICIENT_KOC_L/KG_OPERA_PRED>
108.611

> <OCTANOL_WATER_PARTITION_LOGP_OPERA_PRED>
1.58485

> <MELTING_POINT_DEGC_OPERA_PRED>
92.1549

> <VAPOR_PRESSURE_MMHG_OPERA_PRED>
2.43264e-05

> <WATER_SOLUBILITY_MOL/L_OPERA_PRED>
0.272057

> <TEST_BCF_TEST_PRED>
10.5682

> <BOILING_POINT_DEGC_TEST_PRED>
292.393

> <DENSITY_G/CM^3_TEST_PRED>
1.064

> <FLASH_POINT_DEGC_TEST_PRED>
125.587

> <MELTING_POINT_DEGC_TEST_PRED>
102.092

> <SURFACE_TENSION_DYN/CM_TEST_PRED>
-

> <THERMAL_CONDUCTIVITY_MW/(M*K)_TEST_PRED>
179.121

> <VISCOSITY_CP_CP_TEST_PRED>
18.197

> <VAPOR_PRESSURE_MMHG_TEST_PRED>
9.7499e-06

> <WATER_SOLUBILITY_MOL/L_TEST_PRED>
0.0162555

> <AEGLVALUES>
0

> <ALGALTOX>
0

> <ARCHEMICALS>
0

> <ATSDRLST>
0

> <BISPHENOLS>
0

> <OEHHA>
0

> <CERAPP>
0

> <FUNNAMES>
0

> <KWRSJERPS>
0

> <EPACONS>
0

> <IRIS>
0

> <EPAHFR>
0

> <EUCOSMETICS>
0

> <FRENCHLIST>
0

> <HEROMAP>
0

> <ITNANTIBIOTIC>
0

> <KEMIMARKET>
0

> <MASSBANKREF>
0

> <MASSBANKEUSP>
0

> <NEMILIST>
0

> <NATADB>
0

> <NIOSHIDLH>
0

> <NIOSHICSC>
0

> <NIOSHNPG>
0

> <NIOSHSKIN>
0

> <NORMANCT15>
0

> <SFISHFLUORO>
0

> <NORMANPRI>
0

> <NORMANEWS>
0

> <PFASTRIER>
0

> <SWISSPHARMA>
0

> <PPRTVWEB>
0

> <STOCKHOLM>
0

> <STOFFIDENT>
0

> <SCDM>
0

> <EAWAGSURF>
0

> <SWISSPEST>
0

> <TOX21SL>
0

> <TOXCAST>
0

> <TOXCAST_E1K>
0

> <TOXCAST_PH1V2>
0

> <TOXCAST_PH2>
0

> <TOXCAST_PH3>
0

> <TOXCAST_PHASEI>
0

> <TOXCAST_PHASEII>
0

> <TOXCAST_PHASEIII>
0

> <TRIRELEASE>
0

> <TSCASURF>
0

> <UJIBADE>
0

> <ATHENSSUS>
0

> <UATHTARGETS>
0

$$$$
630741
  Mrv1611109291617242D          

  0  0  0     0  0            999 V3000
M  V30 BEGIN CTAB
M  V30 COUNTS 12 13 0 0 0
M  V30 BEGIN ATOM
M  V30 1 N 0.6422 -3.599 0 0
M  V30 2 C -0.5618 -2.6389 0 0
M  V30 3 C -1.8955 -3.4089 0 0
M  V30 4 C -3.2292 -2.6389 0 0
M  V30 5 C -3.2292 -1.0989 0 0
M  V30 6 C -1.8955 -0.3289 0 0
M  V30 7 C -0.5618 -1.0989 0 0
M  V30 8 C 0.6422 -0.1387 0 0
M  V30 9 N 0.2995 1.3627 0 0
M  V30 10 C 2.1436 -0.4814 0 0
M  V30 11 C 2.8117 -1.8689 0 0
M  V30 12 C 2.1436 -3.2564 0 0
M  V30 END ATOM
M  V30 BEGIN BOND
M  V30 1 1 1 2
M  V30 2 2 2 3
M  V30 3 1 3 4
M  V30 4 2 4 5
M  V30 5 1 5 6
M  V30 6 2 6 7
M  V30 7 1 7 2
M  V30 8 1 7 8
M  V30 9 1 8 9
M  V30 10 1 8 10
M  V30 11 1 10 11
M  V30 12 1 11 12
M  V30 13 1 12 1
M  V30 END BOND
M  V30 END CTAB
M  END

> <INPUT>
C10H14N2

> <FOUND_BY>
MS Ready Formula

> <DTXCID_INDIVIDUAL_COMPONENT>
DTXCID70890056

> <FORMULA_INDIVIDUAL_COMPONENT>
C10H14N2

> <SMILES_INDIVIDUAL_COMPONENT>
NC1CCCNC2=CC=CC=C12

> <MAPPED_DTXSID>
DTXSID80680046

> <PREFERRED_NAME_DTXSID>
(5R)-2,3,4,5-Tetrahydro-1H-1-benzazepin-5-amine

> <CASRN_DTXSID>
294196-60-4

> <FORMULA_MAPPED_DTXSID>
C10H14N2

> <SMILES_MAPPED_DTXSID>
N[C@@H]1CCCNC2=CC=CC=C12

> <MS_READY_SMILES>
NC1CCCNC2=CC=CC=C12

> <INCHI_STRING_DTXCID>
InChI=1S/C10H14N2/c11-9-5-3-7-12-10-6-2-1-4-8(9)10/h1-2,4,6,9,12H,3,5,7,11H2

> <INCHIKEY_DTXCID>
HWCKTLUUWDOMTP-UHFFFAOYSA-N

> <MONOISOTOPIC_MASS_DTXCID>
162.115698459

> <EXPOCAST_MEDIAN_EXPOSURE_PREDICTION_MG/KG-BW/DAY>
-

> <EXPOCAST>
0

> <NHANES>
0

> <DATA_SOURCES>
1

> <TOXVAL_DATA>
0

> <TOXCAST_PERCENT_ACTIVE>
-

> <TOXCAST_NUMBER_OF_ASSAYS/TOTAL>
-

> <NUMBER_OF_PUBMED_ARTICLES>
-

> <PUBCHEM_DATA_SOURCES>
15

> <CPDAT_COUNT>
-

> <ATMOSPHERIC_HYDROXYLATION_RATE_(AOH)_CM3/MOLECULE*SEC_OPERA_PRED>
2.60554e-11

> <BIOCONCENTRATION_FACTOR_OPERA_PRED>
6.76858

> <BIODEGRADATION_HALF_LIFE_DAYS_DAYS_OPERA_PRED>
3.76803

> <BOILING_POINT_DEGC_OPERA_PRED>
261.284

> <HENRYS_LAW_ATM-M3/MOLE_OPERA_PRED>
6.62507e-08

> <OPERA_KM_DAYS_OPERA_PRED>
0.176492

> <OCTANOL_AIR_PARTITION_COEFF_LOGKOA_OPERA_PRED>
7.9582

> <SOIL_ADSORPTION_COEFFICIENT_KOC_L/KG_OPERA_PRED>
108.611

> <OCTANOL_WATER_PARTITION_LOGP_OPERA_PRED>
1.58485

> <MELTING_POINT_DEGC_OPERA_PRED>
92.1549

> <VAPOR_PRESSURE_MMHG_OPERA_PRED>
2.43264e-05

> <WATER_SOLUBILITY_MOL/L_OPERA_PRED>
0.272057

> <TEST_BCF_TEST_PRED>
10.5682

> <BOILING_POINT_DEGC_TEST_PRED>
292.393

> <DENSITY_G/CM^3_TEST_PRED>
1.064

> <FLASH_POINT_DEGC_TEST_PRED>
125.587

> <MELTING_POINT_DEGC_TEST_PRED>
102.092

> <SURFACE_TENSION_DYN/CM_TEST_PRED>
-

> <THERMAL_CONDUCTIVITY_MW/(M*K)_TEST_PRED>
179.121

> <VISCOSITY_CP_CP_TEST_PRED>
18.197

> <VAPOR_PRESSURE_MMHG_TEST_PRED>
9.7499e-06

> <WATER_SOLUBILITY_MOL/L_TEST_PRED>
0.0162555

> <AEGLVALUES>
0

> <ALGALTOX>
0

> <ARCHEMICALS>
0

> <ATSDRLST>
0

> <BISPHENOLS>
0

> <OEHHA>
0

> <CERAPP>
0

> <FUNNAMES>
0

> <KWRSJERPS>
0

> <EPACONS>
0

> <IRIS>
0

> <EPAHFR>
0

> <EUCOSMETICS>
0

> <FRENCHLIST>
0

> <HEROMAP>
0

> <ITNANTIBIOTIC>
0

> <KEMIMARKET>
0

> <MASSBANKREF>
0

> <MASSBANKEUSP>
0

> <NEMILIST>
0

> <NATADB>
0

> <NIOSHIDLH>
0

> <NIOSHICSC>
0

> <NIOSHNPG>
0

> <NIOSHSKIN>
0

> <NORMANCT15>
0

> <SFISHFLUORO>
0

> <NORMANPRI>
0

> <NORMANEWS>
0

> <PFASTRIER>
0

> <SWISSPHARMA>
0

> <PPRTVWEB>
0

> <STOCKHOLM>
0

> <STOFFIDENT>
0

> <SCDM>
0

> <EAWAGSURF>
0

> <SWISSPEST>
0

> <TOX21SL>
0

> <TOXCAST>
0

> <TOXCAST_E1K>
0

> <TOXCAST_PH1V2>
0

> <TOXCAST_PH2>
0

> <TOXCAST_PH3>
0

> <TOXCAST_PHASEI>
0

> <TOXCAST_PHASEII>
0

> <TOXCAST_PHASEIII>
0

> <TRIRELEASE>
0

> <TSCASURF>
0

> <UJIBADE>
0

> <ATHENSSUS>
0

> <UATHTARGETS>
0

$$$$

  Mrv1533009301520222D          

  0  0  0     0  0            999 V3000
M  V30 BEGIN CTAB
M  V30 COUNTS 12 13 0 0 0
M  V30 BEGIN ATOM
M  V30 1 N 5.7475 2.2669 0 0
M  V30 2 N 4.4137 -4.6633 0 0
M  V30 3 C 5.7475 3.8069 0 0
M  V30 4 C 6.5175 5.1406 0 0
M  V30 5 C 4.9775 5.1406 0 0
M  V30 6 C 4.4137 1.4969 0 0
M  V30 7 C 4.4137 -0.0431 0 0
M  V30 8 C 5.7475 -0.8131 0 0
M  V30 9 C 3.08 -0.8131 0 0
M  V30 10 C 5.7475 -2.3531 0 0
M  V30 11 C 3.08 -2.3531 0 0
M  V30 12 C 4.4137 -3.1231 0 0
M  V30 END ATOM
M  V30 BEGIN BOND
M  V30 1 1 1 3
M  V30 2 1 1 6
M  V30 3 1 2 12
M  V30 4 1 3 4
M  V30 5 1 3 5
M  V30 6 1 4 5
M  V30 7 1 6 7
M  V30 8 2 7 8
M  V30 9 1 7 9
M  V30 10 1 8 10
M  V30 11 2 9 11
M  V30 12 2 10 12
M  V30 13 1 11 12
M  V30 END BOND
M  V30 END CTAB
M  END

> <INPUT>
C10H14N2

> <FOUND_BY>
MS Ready Formula

> <DTXCID_INDIVIDUAL_COMPONENT>
DTXCID90630976

> <FORMULA_INDIVIDUAL_COMPONENT>
C10H14N2

> <SMILES_INDIVIDUAL_COMPONENT>
NC1=CC=C(CNC2CC2)C=C1

> <MAPPED_DTXSID>
DTXSID20680227

> <PREFERRED_NAME_DTXSID>
4-[(Cyclopropylamino)methyl]aniline

> <CASRN_DTXSID>
1082768-71-5

> <FORMULA_MAPPED_DTXSID>
C10H14N2

> <SMILES_MAPPED_DTXSID>
NC1=CC=C(CNC2CC2)C=C1

> <MS_READY_SMILES>
NC1=CC=C(CNC2CC2)C=C1

> <INCHI_STRING_DTXCID>
InChI=1S/C10H14N2/c11-9-3-1-8(2-4-9)7-12-10-5-6-10/h1-4,10,12H,5-7,11H2

> <INCHIKEY_DTXCID>
ZQSPJDFQWLYSMD-UHFFFAOYSA-N

> <MONOISOTOPIC_MASS_DTXCID>
162.115698459

> <EXPOCAST_MEDIAN_EXPOSURE_PREDICTION_MG/KG-BW/DAY>
-

> <EXPOCAST>
0

> <NHANES>
0

> <DATA_SOURCES>
1

> <TOXVAL_DATA>
0

> <TOXCAST_PERCENT_ACTIVE>
-

> <TOXCAST_NUMBER_OF_ASSAYS/TOTAL>
-

> <NUMBER_OF_PUBMED_ARTICLES>
-

> <PUBCHEM_DATA_SOURCES>
33

> <CPDAT_COUNT>
-

> <ATMOSPHERIC_HYDROXYLATION_RATE_(AOH)_CM3/MOLECULE*SEC_OPERA_PRED>
2.60663e-11

> <BIOCONCENTRATION_FACTOR_OPERA_PRED>
6.81765

> <BIODEGRADATION_HALF_LIFE_DAYS_DAYS_OPERA_PRED>
3.82798

> <BOILING_POINT_DEGC_OPERA_PRED>
262.751

> <HENRYS_LAW_ATM-M3/MOLE_OPERA_PRED>
1.6872e-10

> <OPERA_KM_DAYS_OPERA_PRED>
0.164741

> <OCTANOL_AIR_PARTITION_COEFF_LOGKOA_OPERA_PRED>
7.94717

> <SOIL_ADSORPTION_COEFFICIENT_KOC_L/KG_OPERA_PRED>
85.708

> <OCTANOL_WATER_PARTITION_LOGP_OPERA_PRED>
1.63611

> <MELTING_POINT_DEGC_OPERA_PRED>
110.392

> <VAPOR_PRESSURE_MMHG_OPERA_PRED>
3.46065e-05

> <WATER_SOLUBILITY_MOL/L_OPERA_PRED>
0.239383

> <TEST_BCF_TEST_PRED>
10.8143

> <BOILING_POINT_DEGC_TEST_PRED>
311.225

> <DENSITY_G/CM^3_TEST_PRED>
1.121

> <FLASH_POINT_DEGC_TEST_PRED>
155.6

> <MELTING_POINT_DEGC_TEST_PRED>
101.225

> <SURFACE_TENSION_DYN/CM_TEST_PRED>
-

> <THERMAL_CONDUCTIVITY_MW/(M*K)_TEST_PRED>
179.68

> <VISCOSITY_CP_CP_TEST_PRED>
16.4059

> <VAPOR_PRESSURE_MMHG_TEST_PRED>
0.000295801

> <WATER_SOLUBILITY_MOL/L_TEST_PRED>
0.00360579

> <AEGLVALUES>
0

> <ALGALTOX>
0

> <ARCHEMICALS>
0

> <ATSDRLST>
0

> <BISPHENOLS>
0

> <OEHHA>
0

> <CERAPP>
0

> <FUNNAMES>
0

> <KWRSJERPS>
0

> <EPACONS>
0

> <IRIS>
0

> <EPAHFR>
0

> <EUCOSMETICS>
0

> <FRENCHLIST>
0

> <HEROMAP>
0

> <ITNANTIBIOTIC>
0

> <KEMIMARKET>
0

> <MASSBANKREF>
0

> <MASSBANKEUSP>
0

> <NEMILIST>
0

> <NATADB>
0

> <NIOSHIDLH>
0

> <NIOSHICSC>
0

> <NIOSHNPG>
0

> <NIOSHSKIN>
0

> <NORMANCT15>
0

> <SFISHFLUORO>
0

> <NORMANPRI>
0

> <NORMANEWS>
0

> <PFASTRIER>
0

> <SWISSPHARMA>
0

> <PPRTVWEB>
0

> <STOCKHOLM>
0

> <STOFFIDENT>
0

> <SCDM>
0

> <EAWAGSURF>
0

> <SWISSPEST>
0

> <TOX21SL>
0

> <TOXCAST>
0

> <TOXCAST_E1K>
0

> <TOXCAST_PH1V2>
0

> <TOXCAST_PH2>
0

> <TOXCAST_PH3>
0

> <TOXCAST_PHASEI>
0

> <TOXCAST_PHASEII>
0

> <TOXCAST_PHASEIII>
0

> <TRIRELEASE>
0

> <TSCASURF>
0

> <UJIBADE>
0

> <ATHENSSUS>
0

> <UATHTARGETS>
0

$$$$
514960
  Mrv1611109301618062D          

  0  0  0     0  0            999 V3000
M  V30 BEGIN CTAB
M  V30 COUNTS 12 13 0 0 0
M  V30 BEGIN ATOM
M  V30 1 N -5.0576 0.4767 0 0
M  V30 2 C -3.724 -0.2933 0 0
M  V30 3 C -2.3904 0.4767 0 0
M  V30 4 C -1.0567 -0.2933 0 0
M  V30 5 C 0.277 0.4767 0 0
M  V30 6 C 1.6107 -0.2933 0 0
M  V30 7 C 1.6107 -1.8333 0 0
M  V30 8 C 0.277 -2.6033 0 0
M  V30 9 C -1.0567 -1.8333 0 0
M  V30 10 C -2.3904 -2.6033 0 0
M  V30 11 C -3.724 -1.8333 0 0
M  V30 12 N 2.9443 0.4767 0 0
M  V30 END ATOM
M  V30 BEGIN BOND
M  V30 1 1 1 2
M  V30 2 1 2 3
M  V30 3 1 3 4
M  V30 4 2 4 5
M  V30 5 1 5 6
M  V30 6 2 6 7
M  V30 7 1 7 8
M  V30 8 2 8 9
M  V30 9 1 9 4
M  V30 10 1 9 10
M  V30 11 1 10 11
M  V30 12 1 11 2
M  V30 13 1 6 12
M  V30 END BOND
M  V30 END CTAB
M  END

> <INPUT>
C10H14N2

> <FOUND_BY>
MS Ready Formula

> <DTXCID_INDIVIDUAL_COMPONENT>
DTXCID00945008

> <FORMULA_INDIVIDUAL_COMPONENT>
C10H14N2

> <SMILES_INDIVIDUAL_COMPONENT>
NC1CCC2=CC=C(N)C=C2C1

> <MAPPED_DTXSID>
DTXSID20695770

> <PREFERRED_NAME_DTXSID>
1,2,3,4-Tetrahydronaphthalene-2,7-diamine--hydrogen chloride (1/2)

> <CASRN_DTXSID>
861352-50-3

> <FORMULA_MAPPED_DTXSID>
C10H16Cl2N2

> <SMILES_MAPPED_DTXSID>
Cl.Cl.NC1CCC2=C(C1)C=C(N)C=C2

> <MS_READY_SMILES>
NC1CCC2=CC=C(N)C=C2C1

> <INCHI_STRING_DTXCID>
InChI=1S/C10H14N2/c11-9-3-1-7-2-4-10(12)6-8(7)5-9/h1,3,5,10H,2,4,6,11-12H2

> <INCHIKEY_DTXCID>
FISUQAVKGARTJH-UHFFFAOYSA-N

> <MONOISOTOPIC_MASS_DTXCID>
162.115698459

> <EXPOCAST_MEDIAN_EXPOSURE_PREDICTION_MG/KG-BW/DAY>
-

> <EXPOCAST>
0

> <NHANES>
0

> <DATA_SOURCES>
1

> <TOXVAL_DATA>
0

> <TOXCAST_PERCENT_ACTIVE>
-

> <TOXCAST_NUMBER_OF_ASSAYS/TOTAL>
-

> <NUMBER_OF_PUBMED_ARTICLES>
-

> <PUBCHEM_DATA_SOURCES>
8

> <CPDAT_COUNT>
-

> <ATMOSPHERIC_HYDROXYLATION_RATE_(AOH)_CM3/MOLECULE*SEC_OPERA_PRED>
2.79036e-11

> <BIOCONCENTRATION_FACTOR_OPERA_PRED>
11.5968

> <BIODEGRADATION_HALF_LIFE_DAYS_DAYS_OPERA_PRED>
4.18778

> <BOILING_POINT_DEGC_OPERA_PRED>
267.276

> <HENRYS_LAW_ATM-M3/MOLE_OPERA_PRED>
1.71772e-10

> <OPERA_KM_DAYS_OPERA_PRED>
0.17683

> <OCTANOL_AIR_PARTITION_COEFF_LOGKOA_OPERA_PRED>
8.07088

> <SOIL_ADSORPTION_COEFFICIENT_KOC_L/KG_OPERA_PRED>
113.441

> <OCTANOL_WATER_PARTITION_LOGP_OPERA_PRED>
1.00863

> <MELTING_POINT_DEGC_OPERA_PRED>
134.062

> <VAPOR_PRESSURE_MMHG_OPERA_PRED>
0.000165525

> <WATER_SOLUBILITY_MOL/L_OPERA_PRED>
0.0219887

> <TEST_BCF_TEST_PRED>
4.98884

> <BOILING_POINT_DEGC_TEST_PRED>
292.728

> <DENSITY_G/CM^3_TEST_PRED>
1.124

> <FLASH_POINT_DEGC_TEST_PRED>
163.07

> <MELTING_POINT_DEGC_TEST_PRED>
115.998

> <SURFACE_TENSION_DYN/CM_TEST_PRED>
-

> <THERMAL_CONDUCTIVITY_MW/(M*K)_TEST_PRED>
-

> <VISCOSITY_CP_CP_TEST_PRED>
12.8233

> <VAPOR_PRESSURE_MMHG_TEST_PRED>
8.531e-05

> <WATER_SOLUBILITY_MOL/L_TEST_PRED>
0.00755092

> <AEGLVALUES>
0

> <ALGALTOX>
0

> <ARCHEMICALS>
0

> <ATSDRLST>
0

> <BISPHENOLS>
0

> <OEHHA>
0

> <CERAPP>
0

> <FUNNAMES>
0

> <KWRSJERPS>
0

> <EPACONS>
0

> <IRIS>
0

> <EPAHFR>
0

> <EUCOSMETICS>
0

> <FRENCHLIST>
0

> <HEROMAP>
0

> <ITNANTIBIOTIC>
0

> <KEMIMARKET>
0

> <MASSBANKREF>
0

> <MASSBANKEUSP>
0

> <NEMILIST>
0

> <NATADB>
0

> <NIOSHIDLH>
0

> <NIOSHICSC>
0

> <NIOSHNPG>
0

> <NIOSHSKIN>
0

> <NORMANCT15>
0

> <SFISHFLUORO>
0

> <NORMANPRI>
0

> <NORMANEWS>
0

> <PFASTRIER>
0

> <SWISSPHARMA>
0

> <PPRTVWEB>
0

> <STOCKHOLM>
0

> <STOFFIDENT>
0

> <SCDM>
0

> <EAWAGSURF>
0

> <SWISSPEST>
0

> <TOX21SL>
0

> <TOXCAST>
0

> <TOXCAST_E1K>
0

> <TOXCAST_PH1V2>
0

> <TOXCAST_PH2>
0

> <TOXCAST_PH3>
0

> <TOXCAST_PHASEI>
0

> <TOXCAST_PHASEII>
0

> <TOXCAST_PHASEIII>
0

> <TRIRELEASE>
0

> <TSCASURF>
0

> <UJIBADE>
0

> <ATHENSSUS>
0

> <UATHTARGETS>
0

$$$$
602883
  Mrv1611109291616312D          

  0  0  0     0  0            999 V3000
M  V30 BEGIN CTAB
M  V30 COUNTS 12 13 0 0 0
M  V30 BEGIN ATOM
M  V30 1 N -2.6374 1.0299 0 0
M  V30 2 C -1.3037 1.7999 0 0
M  V30 3 C 0.03 1.0299 0 0
M  V30 4 C 1.3636 1.7999 0 0
M  V30 5 C 2.6973 1.0299 0 0
M  V30 6 C 2.6973 -0.5101 0 0
M  V30 7 C 1.3636 -1.2801 0 0
M  V30 8 C 0.03 -0.5101 0 0
M  V30 9 C -1.3037 -1.2801 0 0
M  V30 10 C -2.6374 -0.5101 0 0
M  V30 11 C -3.9711 -1.2801 0 0
M  V30 12 N -3.9711 -2.8201 0 0
M  V30 END ATOM
M  V30 BEGIN BOND
M  V30 1 1 1 2
M  V30 2 1 2 3
M  V30 3 2 3 4
M  V30 4 1 4 5
M  V30 5 2 5 6
M  V30 6 1 6 7
M  V30 7 2 7 8
M  V30 8 1 8 3
M  V30 9 1 8 9
M  V30 10 1 9 10
M  V30 11 1 10 1
M  V30 12 1 10 11
M  V30 13 1 11 12
M  V30 END BOND
M  V30 END CTAB
M  END

> <INPUT>
C10H14N2

> <FOUND_BY>
MS Ready Formula

> <DTXCID_INDIVIDUAL_COMPONENT>
DTXCID10882511

> <FORMULA_INDIVIDUAL_COMPONENT>
C10H14N2

> <SMILES_INDIVIDUAL_COMPONENT>
NCC1CC2=CC=CC=C2CN1

> <MAPPED_DTXSID>
DTXSID90696012

> <PREFERRED_NAME_DTXSID>
1-(1,2,3,4-Tetrahydroisoquinolin-3-yl)methanamine--hydrogen chloride (1/2)

> <CASRN_DTXSID>
54329-61-2

> <FORMULA_MAPPED_DTXSID>
C10H16Cl2N2

> <SMILES_MAPPED_DTXSID>
Cl.Cl.NCC1CC2=CC=CC=C2CN1

> <MS_READY_SMILES>
NCC1CC2=CC=CC=C2CN1

> <INCHI_STRING_DTXCID>
InChI=1S/C10H14N2/c11-6-10-5-8-3-1-2-4-9(8)7-12-10/h1-4,10,12H,5-7,11H2

> <INCHIKEY_DTXCID>
QQDYNQIMTRERLH-UHFFFAOYSA-N

> <MONOISOTOPIC_MASS_DTXCID>
162.115698459

> <EXPOCAST_MEDIAN_EXPOSURE_PREDICTION_MG/KG-BW/DAY>
-

> <EXPOCAST>
0

> <NHANES>
0

> <DATA_SOURCES>
1

> <TOXVAL_DATA>
0

> <TOXCAST_PERCENT_ACTIVE>
-

> <TOXCAST_NUMBER_OF_ASSAYS/TOTAL>
-

> <NUMBER_OF_PUBMED_ARTICLES>
-

> <PUBCHEM_DATA_SOURCES>
21

> <CPDAT_COUNT>
-

> <ATMOSPHERIC_HYDROXYLATION_RATE_(AOH)_CM3/MOLECULE*SEC_OPERA_PRED>
1.47682e-11

> <BIOCONCENTRATION_FACTOR_OPERA_PRED>
4.0331

> <BIODEGRADATION_HALF_LIFE_DAYS_DAYS_OPERA_PRED>
4.08764

> <BOILING_POINT_DEGC_OPERA_PRED>
265.364

> <HENRYS_LAW_ATM-M3/MOLE_OPERA_PRED>
1.04142e-07

> <OPERA_KM_DAYS_OPERA_PRED>
0.203005

> <OCTANOL_AIR_PARTITION_COEFF_LOGKOA_OPERA_PRED>
7.9405

> <SOIL_ADSORPTION_COEFFICIENT_KOC_L/KG_OPERA_PRED>
139.493

> <OCTANOL_WATER_PARTITION_LOGP_OPERA_PRED>
1.42622

> <MELTING_POINT_DEGC_OPERA_PRED>
86.401

> <VAPOR_PRESSURE_MMHG_OPERA_PRED>
6.69658e-05

> <WATER_SOLUBILITY_MOL/L_OPERA_PRED>
0.291459

> <TEST_BCF_TEST_PRED>
3.42768

> <BOILING_POINT_DEGC_TEST_PRED>
267.974

> <DENSITY_G/CM^3_TEST_PRED>
1.007

> <FLASH_POINT_DEGC_TEST_PRED>
134.24

> <MELTING_POINT_DEGC_TEST_PRED>
106.769

> <SURFACE_TENSION_DYN/CM_TEST_PRED>
33.427

> <THERMAL_CONDUCTIVITY_MW/(M*K)_TEST_PRED>
181.998

> <VISCOSITY_CP_CP_TEST_PRED>
10.4232

> <VAPOR_PRESSURE_MMHG_TEST_PRED>
0.000372392

> <WATER_SOLUBILITY_MOL/L_TEST_PRED>
0.034914

> <AEGLVALUES>
0

> <ALGALTOX>
0

> <ARCHEMICALS>
0

> <ATSDRLST>
0

> <BISPHENOLS>
0

> <OEHHA>
0

> <CERAPP>
0

> <FUNNAMES>
0

> <KWRSJERPS>
0

> <EPACONS>
0

> <IRIS>
0

> <EPAHFR>
0

> <EUCOSMETICS>
0

> <FRENCHLIST>
0

> <HEROMAP>
0

> <ITNANTIBIOTIC>
0

> <KEMIMARKET>
0

> <MASSBANKREF>
0

> <MASSBANKEUSP>
0

> <NEMILIST>
0

> <NATADB>
0

> <NIOSHIDLH>
0

> <NIOSHICSC>
0

> <NIOSHNPG>
0

> <NIOSHSKIN>
0

> <NORMANCT15>
0

> <SFISHFLUORO>
0

> <NORMANPRI>
0

> <NORMANEWS>
0

> <PFASTRIER>
0

> <SWISSPHARMA>
0

> <PPRTVWEB>
0

> <STOCKHOLM>
0

> <STOFFIDENT>
0

> <SCDM>
0

> <EAWAGSURF>
0

> <SWISSPEST>
0

> <TOX21SL>
0

> <TOXCAST>
0

> <TOXCAST_E1K>
0

> <TOXCAST_PH1V2>
0

> <TOXCAST_PH2>
0

> <TOXCAST_PH3>
0

> <TOXCAST_PHASEI>
0

> <TOXCAST_PHASEII>
0

> <TOXCAST_PHASEIII>
0

> <TRIRELEASE>
0

> <TSCASURF>
0

> <UJIBADE>
0

> <ATHENSSUS>
0

> <UATHTARGETS>
0

$$$$

  Mrv1533009301520292D          

  0  0  0     0  0            999 V3000
M  V30 BEGIN CTAB
M  V30 COUNTS 12 13 0 0 1
M  V30 BEGIN ATOM
M  V30 1 N 6.3 -0.77 0 0
M  V30 2 N 8.9675 -0.77 0 0
M  V30 3 C 4.9663 0 0 0
M  V30 4 C 4.5675 1.4875 0 0
M  V30 5 C 3.4787 -0.3985 0 0
M  V30 6 C 3.08 1.089 0 0
M  V30 7 C 6.3 -2.31 0 0
M  V30 8 C 7.6337 0 0 0
M  V30 9 C 7.6337 1.54 0 0
M  V30 10 C 8.9675 2.31 0 0
M  V30 11 C 10.301 0 0 0
M  V30 12 C 10.301 1.54 0 0
M  V30 END ATOM
M  V30 BEGIN BOND
M  V30 1 1 1 3
M  V30 2 1 1 7
M  V30 3 1 1 8
M  V30 4 1 2 8
M  V30 5 2 2 11
M  V30 6 1 3 4
M  V30 7 1 3 5
M  V30 8 1 4 6
M  V30 9 1 5 6
M  V30 10 2 8 9
M  V30 11 1 9 10
M  V30 12 2 10 12
M  V30 13 1 11 12
M  V30 END BOND
M  V30 END CTAB
M  END

> <INPUT>
C10H14N2

> <FOUND_BY>
MS Ready Formula

> <DTXCID_INDIVIDUAL_COMPONENT>
DTXCID30654797

> <FORMULA_INDIVIDUAL_COMPONENT>
C10H14N2

> <SMILES_INDIVIDUAL_COMPONENT>
CN(C1CCC1)C1=CC=CC=N1

> <MAPPED_DTXSID>
DTXSID30704049

> <PREFERRED_NAME_DTXSID>
N-Cyclobutyl-N-methylpyridin-2-amine

> <CASRN_DTXSID>
1010422-31-7

> <FORMULA_MAPPED_DTXSID>
C10H14N2

> <SMILES_MAPPED_DTXSID>
CN(C1CCC1)C1=CC=CC=N1

> <MS_READY_SMILES>
CN(C1CCC1)C1=CC=CC=N1

> <INCHI_STRING_DTXCID>
InChI=1S/C10H14N2/c1-12(9-5-4-6-9)10-7-2-3-8-11-10/h2-3,7-9H,4-6H2,1H3

> <INCHIKEY_DTXCID>
PKWIATLYBUNVCB-UHFFFAOYSA-N

> <MONOISOTOPIC_MASS_DTXCID>
162.115698459

> <EXPOCAST_MEDIAN_EXPOSURE_PREDICTION_MG/KG-BW/DAY>
-

> <EXPOCAST>
0

> <NHANES>
0

> <DATA_SOURCES>
1

> <TOXVAL_DATA>
0

> <TOXCAST_PERCENT_ACTIVE>
-

> <TOXCAST_NUMBER_OF_ASSAYS/TOTAL>
-

> <NUMBER_OF_PUBMED_ARTICLES>
-

> <PUBCHEM_DATA_SOURCES>
6

> <CPDAT_COUNT>
-

> <ATMOSPHERIC_HYDROXYLATION_RATE_(AOH)_CM3/MOLECULE*SEC_OPERA_PRED>
4.3087e-11

> <BIOCONCENTRATION_FACTOR_OPERA_PRED>
14.1185

> <BIODEGRADATION_HALF_LIFE_DAYS_DAYS_OPERA_PRED>
3.85823

> <BOILING_POINT_DEGC_OPERA_PRED>
255.142

> <HENRYS_LAW_ATM-M3/MOLE_OPERA_PRED>
4.54061e-06

> <OPERA_KM_DAYS_OPERA_PRED>
5.99269

> <OCTANOL_AIR_PARTITION_COEFF_LOGKOA_OPERA_PRED>
6.15059

> <SOIL_ADSORPTION_COEFFICIENT_KOC_L/KG_OPERA_PRED>
183.73

> <OCTANOL_WATER_PARTITION_LOGP_OPERA_PRED>
1.78853

> <MELTING_POINT_DEGC_OPERA_PRED>
55.5238

> <VAPOR_PRESSURE_MMHG_OPERA_PRED>
0.00335039

> <WATER_SOLUBILITY_MOL/L_OPERA_PRED>
0.0350217

> <TEST_BCF_TEST_PRED>
16.8655

> <BOILING_POINT_DEGC_TEST_PRED>
233.568

> <DENSITY_G/CM^3_TEST_PRED>
1.06

> <FLASH_POINT_DEGC_TEST_PRED>
94.947

> <MELTING_POINT_DEGC_TEST_PRED>
39.756

> <SURFACE_TENSION_DYN/CM_TEST_PRED>
36.177

> <THERMAL_CONDUCTIVITY_MW/(M*K)_TEST_PRED>
142.457

> <VISCOSITY_CP_CP_TEST_PRED>
6.05341

> <VAPOR_PRESSURE_MMHG_TEST_PRED>
0.0616595

> <WATER_SOLUBILITY_MOL/L_TEST_PRED>
0.00870964

> <AEGLVALUES>
0

> <ALGALTOX>
0

> <ARCHEMICALS>
0

> <ATSDRLST>
0

> <BISPHENOLS>
0

> <OEHHA>
0

> <CERAPP>
0

> <FUNNAMES>
0

> <KWRSJERPS>
0

> <EPACONS>
0

> <IRIS>
0

> <EPAHFR>
0

> <EUCOSMETICS>
0

> <FRENCHLIST>
0

> <HEROMAP>
0

> <ITNANTIBIOTIC>
0

> <KEMIMARKET>
0

> <MASSBANKREF>
0

> <MASSBANKEUSP>
0

> <NEMILIST>
0

> <NATADB>
0

> <NIOSHIDLH>
0

> <NIOSHICSC>
0

> <NIOSHNPG>
0

> <NIOSHSKIN>
0

> <NORMANCT15>
0

> <SFISHFLUORO>
0

> <NORMANPRI>
0

> <NORMANEWS>
0

> <PFASTRIER>
0

> <SWISSPHARMA>
0

> <PPRTVWEB>
0

> <STOCKHOLM>
0

> <STOFFIDENT>
0

> <SCDM>
0

> <EAWAGSURF>
0

> <SWISSPEST>
0

> <TOX21SL>
0

> <TOXCAST>
0

> <TOXCAST_E1K>
0

> <TOXCAST_PH1V2>
0

> <TOXCAST_PH2>
0

> <TOXCAST_PH3>
0

> <TOXCAST_PHASEI>
0

> <TOXCAST_PHASEII>
0

> <TOXCAST_PHASEIII>
0

> <TRIRELEASE>
0

> <TSCASURF>
0

> <UJIBADE>
0

> <ATHENSSUS>
0

> <UATHTARGETS>
0

$$$$

  Mrv1533009301519002D          

  0  0  0     0  0            999 V3000
M  V30 BEGIN CTAB
M  V30 COUNTS 12 13 0 0 0
M  V30 BEGIN ATOM
M  V30 1 N 5.7475 1.288 0 0
M  V30 2 N 8.9673 3.1472 0 0
M  V30 3 C 7.6335 2.3772 0 0
M  V30 4 C 7.235 0.8895 0 0
M  V30 5 C 6.1462 2.7757 0 0
M  V30 6 C 4.4137 0.518 0 0
M  V30 7 C 4.4137 -1.022 0 0
M  V30 8 C 3.08 -1.792 0 0
M  V30 9 C 5.7475 -1.792 0 0
M  V30 10 C 3.08 -3.332 0 0
M  V30 11 C 5.7475 -3.332 0 0
M  V30 12 C 4.4137 -4.102 0 0
M  V30 END ATOM
M  V30 BEGIN BOND
M  V30 1 1 1 4
M  V30 2 1 1 5
M  V30 3 1 1 6
M  V30 4 1 2 3
M  V30 5 1 3 4
M  V30 6 1 3 5
M  V30 7 1 6 7
M  V30 8 2 7 8
M  V30 9 1 7 9
M  V30 10 1 8 10
M  V30 11 2 9 11
M  V30 12 2 10 12
M  V30 13 1 11 12
M  V30 END BOND
M  V30 END CTAB
M  END

> <INPUT>
C10H14N2

> <FOUND_BY>
MS Ready Formula

> <DTXCID_INDIVIDUAL_COMPONENT>
DTXCID80387442

> <FORMULA_INDIVIDUAL_COMPONENT>
C10H14N2

> <SMILES_INDIVIDUAL_COMPONENT>
NC1CN(CC2=CC=CC=C2)C1

> <MAPPED_DTXSID>
DTXSID20704391

> <PREFERRED_NAME_DTXSID>
1-Benzylazetidin-3-amine--hydrogen chloride (1/2)

> <CASRN_DTXSID>
1307683-81-3

> <FORMULA_MAPPED_DTXSID>
C10H16Cl2N2

> <SMILES_MAPPED_DTXSID>
Cl.Cl.NC1CN(CC2=CC=CC=C2)C1

> <MS_READY_SMILES>
NC1CN(CC2=CC=CC=C2)C1

> <INCHI_STRING_DTXCID>
InChI=1S/C10H14N2/c11-10-7-12(8-10)6-9-4-2-1-3-5-9/h1-5,10H,6-8,11H2

> <INCHIKEY_DTXCID>
KLUJUFXZZAOGQQ-UHFFFAOYSA-N

> <MONOISOTOPIC_MASS_DTXCID>
162.115698459

> <EXPOCAST_MEDIAN_EXPOSURE_PREDICTION_MG/KG-BW/DAY>
-

> <EXPOCAST>
0

> <NHANES>
0

> <DATA_SOURCES>
1

> <TOXVAL_DATA>
0

> <TOXCAST_PERCENT_ACTIVE>
-

> <TOXCAST_NUMBER_OF_ASSAYS/TOTAL>
-

> <NUMBER_OF_PUBMED_ARTICLES>
-

> <PUBCHEM_DATA_SOURCES>
17

> <CPDAT_COUNT>
-

> <ATMOSPHERIC_HYDROXYLATION_RATE_(AOH)_CM3/MOLECULE*SEC_OPERA_PRED>
1.84542e-11

> <BIOCONCENTRATION_FACTOR_OPERA_PRED>
2.74283

> <BIODEGRADATION_HALF_LIFE_DAYS_DAYS_OPERA_PRED>
3.33063

> <BOILING_POINT_DEGC_OPERA_PRED>
288.578

> <HENRYS_LAW_ATM-M3/MOLE_OPERA_PRED>
8.91058e-07

> <OPERA_KM_DAYS_OPERA_PRED>
0.14785

> <OCTANOL_AIR_PARTITION_COEFF_LOGKOA_OPERA_PRED>
8.41756

> <SOIL_ADSORPTION_COEFFICIENT_KOC_L/KG_OPERA_PRED>
128.802

> <OCTANOL_WATER_PARTITION_LOGP_OPERA_PRED>
1.05341

> <MELTING_POINT_DEGC_OPERA_PRED>
94.0006

> <VAPOR_PRESSURE_MMHG_OPERA_PRED>
0.0102958

> <WATER_SOLUBILITY_MOL/L_OPERA_PRED>
0.166732

> <TEST_BCF_TEST_PRED>
9.81748

> <BOILING_POINT_DEGC_TEST_PRED>
268.513

> <DENSITY_G/CM^3_TEST_PRED>
1.044

> <FLASH_POINT_DEGC_TEST_PRED>
99.744

> <MELTING_POINT_DEGC_TEST_PRED>
82.045

> <SURFACE_TENSION_DYN/CM_TEST_PRED>
-

> <THERMAL_CONDUCTIVITY_MW/(M*K)_TEST_PRED>
163.233

> <VISCOSITY_CP_CP_TEST_PRED>
4.74242

> <VAPOR_PRESSURE_MMHG_TEST_PRED>
0.00116145

> <WATER_SOLUBILITY_MOL/L_TEST_PRED>
0.0428549

> <AEGLVALUES>
0

> <ALGALTOX>
0

> <ARCHEMICALS>
0

> <ATSDRLST>
0

> <BISPHENOLS>
0

> <OEHHA>
0

> <CERAPP>
0

> <FUNNAMES>
0

> <KWRSJERPS>
0

> <EPACONS>
0

> <IRIS>
0

> <EPAHFR>
0

> <EUCOSMETICS>
0

> <FRENCHLIST>
0

> <HEROMAP>
0

> <ITNANTIBIOTIC>
0

> <KEMIMARKET>
0

> <MASSBANKREF>
0

> <MASSBANKEUSP>
0

> <NEMILIST>
0

> <NATADB>
0

> <NIOSHIDLH>
0

> <NIOSHICSC>
0

> <NIOSHNPG>
0

> <NIOSHSKIN>
0

> <NORMANCT15>
0

> <SFISHFLUORO>
0

> <NORMANPRI>
0

> <NORMANEWS>
0

> <PFASTRIER>
0

> <SWISSPHARMA>
0

> <PPRTVWEB>
0

> <STOCKHOLM>
0

> <STOFFIDENT>
0

> <SCDM>
0

> <EAWAGSURF>
0

> <SWISSPEST>
0

> <TOX21SL>
0

> <TOXCAST>
0

> <TOXCAST_E1K>
0

> <TOXCAST_PH1V2>
0

> <TOXCAST_PH2>
0

> <TOXCAST_PH3>
0

> <TOXCAST_PHASEI>
0

> <TOXCAST_PHASEII>
0

> <TOXCAST_PHASEIII>
0

> <TRIRELEASE>
0

> <TSCASURF>
0

> <UJIBADE>
0

> <ATHENSSUS>
0

> <UATHTARGETS>
0

$$$$

  Mrv1533009301520302D          

  0  0  0     0  0            999 V3000
M  V30 BEGIN CTAB
M  V30 COUNTS 12 11 0 0 0
M  V30 BEGIN ATOM
M  V30 1 N 16.4171 -0.3851 0 0
M  V30 2 N 3.08 -0.3851 0 0
M  V30 3 C 11.0824 1.1551 0 0
M  V30 4 C 12.4161 0.3851 0 0
M  V30 5 C 9.7485 0.3851 0 0
M  V30 6 C 8.4149 1.1551 0 0
M  V30 7 C 7.0812 0.3851 0 0
M  V30 8 C 13.7497 1.1551 0 0
M  V30 9 C 9.7485 -1.1551 0 0
M  V30 10 C 5.7475 1.1551 0 0
M  V30 11 C 15.0834 0.3851 0 0
M  V30 12 C 4.4137 0.3851 0 0
M  V30 END ATOM
M  V30 BEGIN BOND
M  V30 1 3 1 11
M  V30 2 3 2 12
M  V30 3 1 3 4
M  V30 4 1 3 5
M  V30 5 1 4 8
M  V30 6 2 5 6 CFG=2
M  V30 7 1 5 9
M  V30 8 1 6 7
M  V30 9 1 7 10
M  V30 10 1 8 11
M  V30 11 1 10 12
M  V30 END BOND
M  V30 END CTAB
M  END

> <INPUT>
C10H14N2

> <FOUND_BY>
MS Ready Formula

> <DTXCID_INDIVIDUAL_COMPONENT>
DTXCID10658253

> <FORMULA_INDIVIDUAL_COMPONENT>
C10H14N2

> <SMILES_INDIVIDUAL_COMPONENT>
CC(CCCC#N)=CCCC#N

> <MAPPED_DTXSID>
DTXSID80707505

> <PREFERRED_NAME_DTXSID>
5-Methylnon-4-enedinitrile

> <CASRN_DTXSID>
56726-76-2

> <FORMULA_MAPPED_DTXSID>
C10H14N2

> <SMILES_MAPPED_DTXSID>
CC(CCCC#N)=CCCC#N

> <MS_READY_SMILES>
CC(CCCC#N)=CCCC#N

> <INCHI_STRING_DTXCID>
InChI=1S/C10H14N2/c1-10(6-2-4-8-11)7-3-5-9-12/h6H,2-5,7H2,1H3

> <INCHIKEY_DTXCID>
HWGNERYJKMWNBQ-UHFFFAOYSA-N

> <MONOISOTOPIC_MASS_DTXCID>
162.115698459

> <EXPOCAST_MEDIAN_EXPOSURE_PREDICTION_MG/KG-BW/DAY>
-

> <EXPOCAST>
0

> <NHANES>
0

> <DATA_SOURCES>
1

> <TOXVAL_DATA>
0

> <TOXCAST_PERCENT_ACTIVE>
-

> <TOXCAST_NUMBER_OF_ASSAYS/TOTAL>
-

> <NUMBER_OF_PUBMED_ARTICLES>
-

> <PUBCHEM_DATA_SOURCES>
6

> <CPDAT_COUNT>
-

> <ATMOSPHERIC_HYDROXYLATION_RATE_(AOH)_CM3/MOLECULE*SEC_OPERA_PRED>
1.88297e-10

> <BIOCONCENTRATION_FACTOR_OPERA_PRED>
18.5274

> <BIODEGRADATION_HALF_LIFE_DAYS_DAYS_OPERA_PRED>
4.43548

> <BOILING_POINT_DEGC_OPERA_PRED>
284.595

> <HENRYS_LAW_ATM-M3/MOLE_OPERA_PRED>
2.70314e-08

> <OPERA_KM_DAYS_OPERA_PRED>
2.19978

> <OCTANOL_AIR_PARTITION_COEFF_LOGKOA_OPERA_PRED>
5.81123

> <SOIL_ADSORPTION_COEFFICIENT_KOC_L/KG_OPERA_PRED>
325.553

> <OCTANOL_WATER_PARTITION_LOGP_OPERA_PRED>
0.996561

> <MELTING_POINT_DEGC_OPERA_PRED>
15.91

> <VAPOR_PRESSURE_MMHG_OPERA_PRED>
0.00728296

> <WATER_SOLUBILITY_MOL/L_OPERA_PRED>
0.136047

> <TEST_BCF_TEST_PRED>
20.893

> <BOILING_POINT_DEGC_TEST_PRED>
280.079

> <DENSITY_G/CM^3_TEST_PRED>
0.938

> <FLASH_POINT_DEGC_TEST_PRED>
119.161

> <MELTING_POINT_DEGC_TEST_PRED>
1.568

> <SURFACE_TENSION_DYN/CM_TEST_PRED>
36.01

> <THERMAL_CONDUCTIVITY_MW/(M*K)_TEST_PRED>
-

> <VISCOSITY_CP_CP_TEST_PRED>
2.32274

> <VAPOR_PRESSURE_MMHG_TEST_PRED>
0.0078886

> <WATER_SOLUBILITY_MOL/L_TEST_PRED>
0.00909913

> <AEGLVALUES>
0

> <ALGALTOX>
0

> <ARCHEMICALS>
0

> <ATSDRLST>
0

> <BISPHENOLS>
0

> <OEHHA>
0

> <CERAPP>
0

> <FUNNAMES>
0

> <KWRSJERPS>
0

> <EPACONS>
0

> <IRIS>
0

> <EPAHFR>
0

> <EUCOSMETICS>
0

> <FRENCHLIST>
0

> <HEROMAP>
0

> <ITNANTIBIOTIC>
0

> <KEMIMARKET>
0

> <MASSBANKREF>
0

> <MASSBANKEUSP>
0

> <NEMILIST>
0

> <NATADB>
0

> <NIOSHIDLH>
0

> <NIOSHICSC>
0

> <NIOSHNPG>
0

> <NIOSHSKIN>
0

> <NORMANCT15>
0

> <SFISHFLUORO>
0

> <NORMANPRI>
0

> <NORMANEWS>
0

> <PFASTRIER>
0

> <SWISSPHARMA>
0

> <PPRTVWEB>
0

> <STOCKHOLM>
0

> <STOFFIDENT>
0

> <SCDM>
0

> <EAWAGSURF>
0

> <SWISSPEST>
0

> <TOX21SL>
0

> <TOXCAST>
0

> <TOXCAST_E1K>
0

> <TOXCAST_PH1V2>
0

> <TOXCAST_PH2>
0

> <TOXCAST_PH3>
0

> <TOXCAST_PHASEI>
0

> <TOXCAST_PHASEII>
0

> <TOXCAST_PHASEIII>
0

> <TRIRELEASE>
0

> <TSCASURF>
0

> <UJIBADE>
0

> <ATHENSSUS>
0

> <UATHTARGETS>
0

$$$$

  Mrv1533009301520302D          

  0  0  0     0  0            999 V3000
M  V30 BEGIN CTAB
M  V30 COUNTS 12 12 0 0 0
M  V30 BEGIN ATOM
M  V30 1 N 7.0812 2.8414 0 0
M  V30 2 N 7.0812 4.3814 0 0
M  V30 3 C 5.7475 0.5313 0 0
M  V30 4 C 5.7475 2.0713 0 0
M  V30 5 C 4.4137 -0.2387 0 0
M  V30 6 C 4.4137 -1.7787 0 0
M  V30 7 C 7.0812 -0.2387 0 0
M  V30 8 C 3.08 -2.5487 0 0
M  V30 9 C 5.7475 -2.5487 0 0
M  V30 10 C 3.08 -4.0887 0 0
M  V30 11 C 5.7475 -4.0887 0 0
M  V30 12 C 4.4137 -4.8587 0 0
M  V30 END ATOM
M  V30 BEGIN BOND
M  V30 1 1 1 2
M  V30 2 1 1 4
M  V30 3 1 3 4
M  V30 4 2 3 5 CFG=2
M  V30 5 1 3 7
M  V30 6 1 5 6
M  V30 7 2 6 8
M  V30 8 1 6 9
M  V30 9 1 8 10
M  V30 10 2 9 11
M  V30 11 2 10 12
M  V30 12 1 11 12
M  V30 END BOND
M  V30 END CTAB
M  END

> <INPUT>
C10H14N2

> <FOUND_BY>
MS Ready Formula

> <DTXCID_INDIVIDUAL_COMPONENT>
DTXCID60659073

> <FORMULA_INDIVIDUAL_COMPONENT>
C10H14N2

> <SMILES_INDIVIDUAL_COMPONENT>
CC(CNN)=CC1=CC=CC=C1

> <MAPPED_DTXSID>
DTXSID30708325

> <PREFERRED_NAME_DTXSID>
(2-Methyl-3-phenylprop-2-en-1-yl)hydrazine

> <CASRN_DTXSID>
92882-31-0

> <FORMULA_MAPPED_DTXSID>
C10H14N2

> <SMILES_MAPPED_DTXSID>
CC(CNN)=CC1=CC=CC=C1

> <MS_READY_SMILES>
CC(CNN)=CC1=CC=CC=C1

> <INCHI_STRING_DTXCID>
InChI=1S/C10H14N2/c1-9(8-12-11)7-10-5-3-2-4-6-10/h2-7,12H,8,11H2,1H3

> <INCHIKEY_DTXCID>
KQLJIMNWWNBXCX-UHFFFAOYSA-N

> <MONOISOTOPIC_MASS_DTXCID>
162.115698459

> <EXPOCAST_MEDIAN_EXPOSURE_PREDICTION_MG/KG-BW/DAY>
-

> <EXPOCAST>
0

> <NHANES>
0

> <DATA_SOURCES>
1

> <TOXVAL_DATA>
0

> <TOXCAST_PERCENT_ACTIVE>
-

> <TOXCAST_NUMBER_OF_ASSAYS/TOTAL>
-

> <NUMBER_OF_PUBMED_ARTICLES>
-

> <PUBCHEM_DATA_SOURCES>
5

> <CPDAT_COUNT>
-

> <ATMOSPHERIC_HYDROXYLATION_RATE_(AOH)_CM3/MOLECULE*SEC_OPERA_PRED>
6.24333e-11

> <BIOCONCENTRATION_FACTOR_OPERA_PRED>
5.40031

> <BIODEGRADATION_HALF_LIFE_DAYS_DAYS_OPERA_PRED>
2.91596

> <BOILING_POINT_DEGC_OPERA_PRED>
256.812

> <HENRYS_LAW_ATM-M3/MOLE_OPERA_PRED>
4.7646e-07

> <OPERA_KM_DAYS_OPERA_PRED>
0.228612

> <OCTANOL_AIR_PARTITION_COEFF_LOGKOA_OPERA_PRED>
7.58275

> <SOIL_ADSORPTION_COEFFICIENT_KOC_L/KG_OPERA_PRED>
120.973

> <OCTANOL_WATER_PARTITION_LOGP_OPERA_PRED>
1.81386

> <MELTING_POINT_DEGC_OPERA_PRED>
52.864

> <VAPOR_PRESSURE_MMHG_OPERA_PRED>
0.00329604

> <WATER_SOLUBILITY_MOL/L_OPERA_PRED>
0.0702694

> <TEST_BCF_TEST_PRED>
-

> <BOILING_POINT_DEGC_TEST_PRED>
-

> <DENSITY_G/CM^3_TEST_PRED>
1.046

> <FLASH_POINT_DEGC_TEST_PRED>
169.197

> <MELTING_POINT_DEGC_TEST_PRED>
111.128

> <SURFACE_TENSION_DYN/CM_TEST_PRED>
-

> <THERMAL_CONDUCTIVITY_MW/(M*K)_TEST_PRED>
-

> <VISCOSITY_CP_CP_TEST_PRED>
-

> <VAPOR_PRESSURE_MMHG_TEST_PRED>
-

> <WATER_SOLUBILITY_MOL/L_TEST_PRED>
0.0169434

> <AEGLVALUES>
0

> <ALGALTOX>
0

> <ARCHEMICALS>
0

> <ATSDRLST>
0

> <BISPHENOLS>
0

> <OEHHA>
0

> <CERAPP>
0

> <FUNNAMES>
0

> <KWRSJERPS>
0

> <EPACONS>
0

> <IRIS>
0

> <EPAHFR>
0

> <EUCOSMETICS>
0

> <FRENCHLIST>
0

> <HEROMAP>
0

> <ITNANTIBIOTIC>
0

> <KEMIMARKET>
0

> <MASSBANKREF>
0

> <MASSBANKEUSP>
0

> <NEMILIST>
0

> <NATADB>
0

> <NIOSHIDLH>
0

> <NIOSHICSC>
0

> <NIOSHNPG>
0

> <NIOSHSKIN>
0

> <NORMANCT15>
0

> <SFISHFLUORO>
0

> <NORMANPRI>
0

> <NORMANEWS>
0

> <PFASTRIER>
0

> <SWISSPHARMA>
0

> <PPRTVWEB>
0

> <STOCKHOLM>
0

> <STOFFIDENT>
0

> <SCDM>
0

> <EAWAGSURF>
0

> <SWISSPEST>
0

> <TOX21SL>
0

> <TOXCAST>
0

> <TOXCAST_E1K>
0

> <TOXCAST_PH1V2>
0

> <TOXCAST_PH2>
0

> <TOXCAST_PH3>
0

> <TOXCAST_PHASEI>
0

> <TOXCAST_PHASEII>
0

> <TOXCAST_PHASEIII>
0

> <TRIRELEASE>
0

> <TSCASURF>
0

> <UJIBADE>
0

> <ATHENSSUS>
0

> <UATHTARGETS>
0

$$$$
660121
  Mrv1611109301622092D          

  0  0  0     0  0            999 V3000
M  V30 BEGIN CTAB
M  V30 COUNTS 12 11 0 0 0
M  V30 BEGIN ATOM
M  V30 1 N 3.5636 -4.5568 0 0
M  V30 2 C 2.7936 -3.2231 0 0
M  V30 3 C 2.0236 -1.8895 0 0
M  V30 4 C 2.7936 -0.5558 0 0
M  V30 5 C 0.4836 -1.8895 0 0
M  V30 6 C -0.2864 -0.5558 0 0
M  V30 7 C 0.4836 0.7779 0 0
M  V30 8 C -1.8264 -0.5558 0 0
M  V30 9 C -2.5964 -1.8895 0 0
M  V30 10 C -1.8264 -3.2231 0 0
M  V30 11 N -1.0564 -4.5568 0 0
M  V30 12 C -4.1364 -1.8895 0 0
M  V30 END ATOM
M  V30 BEGIN BOND
M  V30 1 3 1 2
M  V30 2 1 2 3
M  V30 3 1 3 4
M  V30 4 1 3 5
M  V30 5 1 5 6
M  V30 6 1 6 7
M  V30 7 2 6 8
M  V30 8 1 8 9
M  V30 9 1 9 10
M  V30 10 3 10 11
M  V30 11 1 9 12
M  V30 END BOND
M  V30 END CTAB
M  END

> <INPUT>
C10H14N2

> <FOUND_BY>
MS Ready Formula

> <DTXCID_INDIVIDUAL_COMPONENT>
DTXCID20988634

> <FORMULA_INDIVIDUAL_COMPONENT>
C10H14N2

> <SMILES_INDIVIDUAL_COMPONENT>
CC(C\C(C)=C/C(C)C#N)C#N

> <MAPPED_DTXSID>
DTXSID90709373

> <PREFERRED_NAME_DTXSID>
2,4,6-Trimethylhept-3-enedinitrile

> <CASRN_DTXSID>
62722-59-2

> <FORMULA_MAPPED_DTXSID>
C10H14N2

> <SMILES_MAPPED_DTXSID>
CC(CC(C)=CC(C)C#N)C#N

> <MS_READY_SMILES>
CC(CC(C)=CC(C)C#N)C#N

> <INCHI_STRING_DTXCID>
InChI=1S/C10H14N2/c1-8(4-9(2)6-11)5-10(3)7-12/h4,9-10H,5H2,1-3H3/b8-4-

> <INCHIKEY_DTXCID>
OIWUZXBBESWTHG-YWEYNIOJSA-N

> <MONOISOTOPIC_MASS_DTXCID>
162.115698459

> <EXPOCAST_MEDIAN_EXPOSURE_PREDICTION_MG/KG-BW/DAY>
-

> <EXPOCAST>
0

> <NHANES>
0

> <DATA_SOURCES>
1

> <TOXVAL_DATA>
0

> <TOXCAST_PERCENT_ACTIVE>
-

> <TOXCAST_NUMBER_OF_ASSAYS/TOTAL>
-

> <NUMBER_OF_PUBMED_ARTICLES>
-

> <PUBCHEM_DATA_SOURCES>
6

> <CPDAT_COUNT>
-

> <ATMOSPHERIC_HYDROXYLATION_RATE_(AOH)_CM3/MOLECULE*SEC_OPERA_PRED>
1.09858e-10

> <BIOCONCENTRATION_FACTOR_OPERA_PRED>
11.2953

> <BIODEGRADATION_HALF_LIFE_DAYS_DAYS_OPERA_PRED>
3.53558

> <BOILING_POINT_DEGC_OPERA_PRED>
283.719

> <HENRYS_LAW_ATM-M3/MOLE_OPERA_PRED>
9.685e-08

> <OPERA_KM_DAYS_OPERA_PRED>
1.28147

> <OCTANOL_AIR_PARTITION_COEFF_LOGKOA_OPERA_PRED>
5.78205

> <SOIL_ADSORPTION_COEFFICIENT_KOC_L/KG_OPERA_PRED>
113.004

> <OCTANOL_WATER_PARTITION_LOGP_OPERA_PRED>
0.958086

> <MELTING_POINT_DEGC_OPERA_PRED>
17.0859

> <VAPOR_PRESSURE_MMHG_OPERA_PRED>
0.0194719

> <WATER_SOLUBILITY_MOL/L_OPERA_PRED>
0.10003

> <TEST_BCF_TEST_PRED>
13.9316

> <BOILING_POINT_DEGC_TEST_PRED>
289.533

> <DENSITY_G/CM^3_TEST_PRED>
0.968

> <FLASH_POINT_DEGC_TEST_PRED>
146.211

> <MELTING_POINT_DEGC_TEST_PRED>
23.377

> <SURFACE_TENSION_DYN/CM_TEST_PRED>
36.836

> <THERMAL_CONDUCTIVITY_MW/(M*K)_TEST_PRED>
-

> <VISCOSITY_CP_CP_TEST_PRED>
1.77828

> <VAPOR_PRESSURE_MMHG_TEST_PRED>
0.00933254

> <WATER_SOLUBILITY_MOL/L_TEST_PRED>
0.0309742

> <AEGLVALUES>
0

> <ALGALTOX>
0

> <ARCHEMICALS>
0

> <ATSDRLST>
0

> <BISPHENOLS>
0

> <OEHHA>
0

> <CERAPP>
0

> <FUNNAMES>
0

> <KWRSJERPS>
0

> <EPACONS>
0

> <IRIS>
0

> <EPAHFR>
0

> <EUCOSMETICS>
0

> <FRENCHLIST>
0

> <HEROMAP>
0

> <ITNANTIBIOTIC>
0

> <KEMIMARKET>
0

> <MASSBANKREF>
0

> <MASSBANKEUSP>
0

> <NEMILIST>
0

> <NATADB>
0

> <NIOSHIDLH>
0

> <NIOSHICSC>
0

> <NIOSHNPG>
0

> <NIOSHSKIN>
0

> <NORMANCT15>
0

> <SFISHFLUORO>
0

> <NORMANPRI>
0

> <NORMANEWS>
0

> <PFASTRIER>
0

> <SWISSPHARMA>
0

> <PPRTVWEB>
0

> <STOCKHOLM>
0

> <STOFFIDENT>
0

> <SCDM>
0

> <EAWAGSURF>
0

> <SWISSPEST>
0

> <TOX21SL>
0

> <TOXCAST>
0

> <TOXCAST_E1K>
0

> <TOXCAST_PH1V2>
0

> <TOXCAST_PH2>
0

> <TOXCAST_PH3>
0

> <TOXCAST_PHASEI>
0

> <TOXCAST_PHASEII>
0

> <TOXCAST_PHASEIII>
0

> <TRIRELEASE>
0

> <TSCASURF>
0

> <UJIBADE>
0

> <ATHENSSUS>
0

> <UATHTARGETS>
0

$$$$

  Mrv1533009301520312D          

  0  0  0     0  0            999 V3000
M  V30 BEGIN CTAB
M  V30 COUNTS 12 12 0 0 0
M  V30 BEGIN ATOM
M  V30 1 N 5.7475 0.77 0 0
M  V30 2 N 7.0812 3.08 0 0
M  V30 3 C 4.4137 -1.54 0 0
M  V30 4 C 4.4137 -3.08 0 0
M  V30 5 C 5.7475 -0.77 0 0
M  V30 6 C 5.7475 -3.85 0 0
M  V30 7 C 7.0812 -1.54 0 0
M  V30 8 C 3.08 -0.77 0 0
M  V30 9 C 7.0812 -3.08 0 0
M  V30 10 C 3.08 -3.85 0 0
M  V30 11 C 7.0812 1.54 0 0
M  V30 12 C 8.4149 3.85 0 0
M  V30 END ATOM
M  V30 BEGIN BOND
M  V30 1 1 1 5
M  V30 2 1 1 11
M  V30 3 2 2 11
M  V30 4 1 2 12
M  V30 5 2 3 4
M  V30 6 1 3 5
M  V30 7 1 3 8
M  V30 8 1 4 6
M  V30 9 1 4 10
M  V30 10 2 5 7
M  V30 11 2 6 9
M  V30 12 1 7 9
M  V30 END BOND
M  V30 END CTAB
M  END

> <INPUT>
C10H14N2

> <FOUND_BY>
MS Ready Formula

> <DTXCID_INDIVIDUAL_COMPONENT>
DTXCID90660233

> <FORMULA_INDIVIDUAL_COMPONENT>
C10H14N2

> <SMILES_INDIVIDUAL_COMPONENT>
C\N=C\NC1=CC=CC(C)=C1C

> <MAPPED_DTXSID>
DTXSID00709485

> <PREFERRED_NAME_DTXSID>
N-(2,3-Dimethylphenyl)-N'-methylmethanimidamide

> <CASRN_DTXSID>
42572-04-3

> <FORMULA_MAPPED_DTXSID>
C10H14N2

> <SMILES_MAPPED_DTXSID>
C\N=C\NC1=CC=CC(C)=C1C

> <MS_READY_SMILES>
C\N=C\NC1=CC=CC(C)=C1C

> <INCHI_STRING_DTXCID>
InChI=1S/C10H14N2/c1-8-5-4-6-10(9(8)2)12-7-11-3/h4-7H,1-3H3,(H,11,12)

> <INCHIKEY_DTXCID>
ORVPMWFGKDZNEY-UHFFFAOYSA-N

> <MONOISOTOPIC_MASS_DTXCID>
162.115698459

> <EXPOCAST_MEDIAN_EXPOSURE_PREDICTION_MG/KG-BW/DAY>
-

> <EXPOCAST>
0

> <NHANES>
0

> <DATA_SOURCES>
1

> <TOXVAL_DATA>
0

> <TOXCAST_PERCENT_ACTIVE>
-

> <TOXCAST_NUMBER_OF_ASSAYS/TOTAL>
-

> <NUMBER_OF_PUBMED_ARTICLES>
-

> <PUBCHEM_DATA_SOURCES>
5

> <CPDAT_COUNT>
-

> <ATMOSPHERIC_HYDROXYLATION_RATE_(AOH)_CM3/MOLECULE*SEC_OPERA_PRED>
2.51049e-11

> <BIOCONCENTRATION_FACTOR_OPERA_PRED>
4.50899

> <BIODEGRADATION_HALF_LIFE_DAYS_DAYS_OPERA_PRED>
3.52451

> <BOILING_POINT_DEGC_OPERA_PRED>
279.917

> <HENRYS_LAW_ATM-M3/MOLE_OPERA_PRED>
2.72627e-07

> <OPERA_KM_DAYS_OPERA_PRED>
0.46546

> <OCTANOL_AIR_PARTITION_COEFF_LOGKOA_OPERA_PRED>
7.56732

> <SOIL_ADSORPTION_COEFFICIENT_KOC_L/KG_OPERA_PRED>
80.2518

> <OCTANOL_WATER_PARTITION_LOGP_OPERA_PRED>
1.38612

> <MELTING_POINT_DEGC_OPERA_PRED>
66.7826

> <VAPOR_PRESSURE_MMHG_OPERA_PRED>
0.0178124

> <WATER_SOLUBILITY_MOL/L_OPERA_PRED>
0.00383194

> <TEST_BCF_TEST_PRED>
14.5546

> <BOILING_POINT_DEGC_TEST_PRED>
-

> <DENSITY_G/CM^3_TEST_PRED>
1.171

> <FLASH_POINT_DEGC_TEST_PRED>
127.46

> <MELTING_POINT_DEGC_TEST_PRED>
131.142

> <SURFACE_TENSION_DYN/CM_TEST_PRED>
-

> <THERMAL_CONDUCTIVITY_MW/(M*K)_TEST_PRED>
-

> <VISCOSITY_CP_CP_TEST_PRED>
-

> <VAPOR_PRESSURE_MMHG_TEST_PRED>
-

> <WATER_SOLUBILITY_MOL/L_TEST_PRED>
0.00274157

> <AEGLVALUES>
0

> <ALGALTOX>
0

> <ARCHEMICALS>
0

> <ATSDRLST>
0

> <BISPHENOLS>
0

> <OEHHA>
0

> <CERAPP>
0

> <FUNNAMES>
0

> <KWRSJERPS>
0

> <EPACONS>
0

> <IRIS>
0

> <EPAHFR>
0

> <EUCOSMETICS>
0

> <FRENCHLIST>
0

> <HEROMAP>
0

> <ITNANTIBIOTIC>
0

> <KEMIMARKET>
0

> <MASSBANKREF>
0

> <MASSBANKEUSP>
0

> <NEMILIST>
0

> <NATADB>
0

> <NIOSHIDLH>
0

> <NIOSHICSC>
0

> <NIOSHNPG>
0

> <NIOSHSKIN>
0

> <NORMANCT15>
0

> <SFISHFLUORO>
0

> <NORMANPRI>
0

> <NORMANEWS>
0

> <PFASTRIER>
0

> <SWISSPHARMA>
0

> <PPRTVWEB>
0

> <STOCKHOLM>
0

> <STOFFIDENT>
0

> <SCDM>
0

> <EAWAGSURF>
0

> <SWISSPEST>
0

> <TOX21SL>
0

> <TOXCAST>
0

> <TOXCAST_E1K>
0

> <TOXCAST_PH1V2>
0

> <TOXCAST_PH2>
0

> <TOXCAST_PH3>
0

> <TOXCAST_PHASEI>
0

> <TOXCAST_PHASEII>
0

> <TOXCAST_PHASEIII>
0

> <TRIRELEASE>
0

> <TSCASURF>
0

> <UJIBADE>
0

> <ATHENSSUS>
0

> <UATHTARGETS>
0

$$$$
660574
  Mrv1611109301622102D          

  0  0  0     0  0            999 V3000
M  V30 BEGIN CTAB
M  V30 COUNTS 12 11 0 0 0
M  V30 BEGIN ATOM
M  V30 1 N 4.5088 -4.826 0 0
M  V30 2 C 3.7389 -3.4924 0 0
M  V30 3 C 2.9689 -2.1587 0 0
M  V30 4 C 3.7389 -0.825 0 0
M  V30 5 C 1.4289 -2.1587 0 0
M  V30 6 C 0.6589 -0.825 0 0
M  V30 7 C 1.4289 0.5086 0 0
M  V30 8 C -0.8811 -0.825 0 0
M  V30 9 C -1.6511 -2.1587 0 0
M  V30 10 C -3.1911 -2.1587 0 0
M  V30 11 C -3.9611 -3.4924 0 0
M  V30 12 N -4.731 -4.826 0 0
M  V30 END ATOM
M  V30 BEGIN BOND
M  V30 1 3 1 2
M  V30 2 1 2 3
M  V30 3 1 3 4
M  V30 4 1 3 5
M  V30 5 1 5 6
M  V30 6 1 6 7
M  V30 7 2 6 8
M  V30 8 1 8 9
M  V30 9 1 9 10
M  V30 10 1 10 11
M  V30 11 3 11 12
M  V30 END BOND
M  V30 END CTAB
M  END

> <INPUT>
C10H14N2

> <FOUND_BY>
MS Ready Formula

> <DTXCID_INDIVIDUAL_COMPONENT>
DTXCID90988904

> <FORMULA_INDIVIDUAL_COMPONENT>
C10H14N2

> <SMILES_INDIVIDUAL_COMPONENT>
CC(C\C(C)=C/CCC#N)C#N

> <MAPPED_DTXSID>
DTXSID20709826

> <PREFERRED_NAME_DTXSID>
2,4-Dimethyloct-4-enedinitrile

> <CASRN_DTXSID>
62751-19-3

> <FORMULA_MAPPED_DTXSID>
C10H14N2

> <SMILES_MAPPED_DTXSID>
CC(CC(C)=CCCC#N)C#N

> <MS_READY_SMILES>
CC(CC(C)=CCCC#N)C#N

> <INCHI_STRING_DTXCID>
InChI=1S/C10H14N2/c1-9(5-3-4-6-11)7-10(2)8-12/h5,10H,3-4,7H2,1-2H3/b9-5-

> <INCHIKEY_DTXCID>
PZNDEYCHUBUQOA-UITAMQMPSA-N

> <MONOISOTOPIC_MASS_DTXCID>
162.115698459

> <EXPOCAST_MEDIAN_EXPOSURE_PREDICTION_MG/KG-BW/DAY>
-

> <EXPOCAST>
0

> <NHANES>
0

> <DATA_SOURCES>
1

> <TOXVAL_DATA>
0

> <TOXCAST_PERCENT_ACTIVE>
-

> <TOXCAST_NUMBER_OF_ASSAYS/TOTAL>
-

> <NUMBER_OF_PUBMED_ARTICLES>
-

> <PUBCHEM_DATA_SOURCES>
6

> <CPDAT_COUNT>
-

> <ATMOSPHERIC_HYDROXYLATION_RATE_(AOH)_CM3/MOLECULE*SEC_OPERA_PRED>
1.87808e-10

> <BIOCONCENTRATION_FACTOR_OPERA_PRED>
12.1356

> <BIODEGRADATION_HALF_LIFE_DAYS_DAYS_OPERA_PRED>
3.53985

> <BOILING_POINT_DEGC_OPERA_PRED>
284.195

> <HENRYS_LAW_ATM-M3/MOLE_OPERA_PRED>
4.43116e-08

> <OPERA_KM_DAYS_OPERA_PRED>
1.29119

> <OCTANOL_AIR_PARTITION_COEFF_LOGKOA_OPERA_PRED>
5.72613

> <SOIL_ADSORPTION_COEFFICIENT_KOC_L/KG_OPERA_PRED>
228.434

> <OCTANOL_WATER_PARTITION_LOGP_OPERA_PRED>
0.975357

> <MELTING_POINT_DEGC_OPERA_PRED>
19.2288

> <VAPOR_PRESSURE_MMHG_OPERA_PRED>
0.00627291

> <WATER_SOLUBILITY_MOL/L_OPERA_PRED>
0.0800789

> <TEST_BCF_TEST_PRED>
26.6073

> <BOILING_POINT_DEGC_TEST_PRED>
265.914

> <DENSITY_G/CM^3_TEST_PRED>
0.926

> <FLASH_POINT_DEGC_TEST_PRED>
122.293

> <MELTING_POINT_DEGC_TEST_PRED>
0.58

> <SURFACE_TENSION_DYN/CM_TEST_PRED>
35.248

> <THERMAL_CONDUCTIVITY_MW/(M*K)_TEST_PRED>
-

> <VISCOSITY_CP_CP_TEST_PRED>
1.96789

> <VAPOR_PRESSURE_MMHG_TEST_PRED>
0.0116681

> <WATER_SOLUBILITY_MOL/L_TEST_PRED>
0.00490908

> <AEGLVALUES>
0

> <ALGALTOX>
0

> <ARCHEMICALS>
0

> <ATSDRLST>
0

> <BISPHENOLS>
0

> <OEHHA>
0

> <CERAPP>
0

> <FUNNAMES>
0

> <KWRSJERPS>
0

> <EPACONS>
0

> <IRIS>
0

> <EPAHFR>
0

> <EUCOSMETICS>
0

> <FRENCHLIST>
0

> <HEROMAP>
0

> <ITNANTIBIOTIC>
0

> <KEMIMARKET>
0

> <MASSBANKREF>
0

> <MASSBANKEUSP>
0

> <NEMILIST>
0

> <NATADB>
0

> <NIOSHIDLH>
0

> <NIOSHICSC>
0

> <NIOSHNPG>
0

> <NIOSHSKIN>
0

> <NORMANCT15>
0

> <SFISHFLUORO>
0

> <NORMANPRI>
0

> <NORMANEWS>
0

> <PFASTRIER>
0

> <SWISSPHARMA>
0

> <PPRTVWEB>
0

> <STOCKHOLM>
0

> <STOFFIDENT>
0

> <SCDM>
0

> <EAWAGSURF>
0

> <SWISSPEST>
0

> <TOX21SL>
0

> <TOXCAST>
0

> <TOXCAST_E1K>
0

> <TOXCAST_PH1V2>
0

> <TOXCAST_PH2>
0

> <TOXCAST_PH3>
0

> <TOXCAST_PHASEI>
0

> <TOXCAST_PHASEII>
0

> <TOXCAST_PHASEIII>
0

> <TRIRELEASE>
0

> <TSCASURF>
0

> <UJIBADE>
0

> <ATHENSSUS>
0

> <UATHTARGETS>
0

$$$$
662732
  Mrv1611109301622152D          

  0  0  0     0  0            999 V3000
M  V30 BEGIN CTAB
M  V30 COUNTS 12 11 0 0 0
M  V30 BEGIN ATOM
M  V30 1 N -0.9692 5.1412 0 0
M  V30 2 C -0.9692 3.6013 0 0
M  V30 3 C -0.9692 2.0613 0 0
M  V30 4 C -2.3029 1.2913 0 0
M  V30 5 C 0.3645 1.2913 0 0
M  V30 6 C 0.3645 -0.2487 0 0
M  V30 7 C -0.9692 -1.0187 0 0
M  V30 8 C 1.6981 -1.0187 0 0
M  V30 9 C 3.0318 -0.2487 0 0
M  V30 10 C 4.3654 -1.0187 0 0
M  V30 11 C 5.6991 -0.2487 0 0
M  V30 12 N 7.0328 0.5213 0 0
M  V30 END ATOM
M  V30 BEGIN BOND
M  V30 1 3 1 2
M  V30 2 1 2 3
M  V30 3 1 3 4
M  V30 4 1 3 5
M  V30 5 2 5 6
M  V30 6 1 6 7
M  V30 7 1 6 8
M  V30 8 1 8 9
M  V30 9 1 9 10
M  V30 10 1 10 11
M  V30 11 3 11 12
M  V30 END BOND
M  V30 END CTAB
M  END

> <INPUT>
C10H14N2

> <FOUND_BY>
MS Ready Formula

> <DTXCID_INDIVIDUAL_COMPONENT>
DTXCID50990306

> <FORMULA_INDIVIDUAL_COMPONENT>
C10H14N2

> <SMILES_INDIVIDUAL_COMPONENT>
CC(\C=C(/C)CCCC#N)C#N

> <MAPPED_DTXSID>
DTXSID40711986

> <PREFERRED_NAME_DTXSID>
2,4-Dimethyloct-3-enedinitrile

> <CASRN_DTXSID>
62722-57-0

> <FORMULA_MAPPED_DTXSID>
C10H14N2

> <SMILES_MAPPED_DTXSID>
CC(C=C(C)CCCC#N)C#N

> <MS_READY_SMILES>
CC(C=C(C)CCCC#N)C#N

> <INCHI_STRING_DTXCID>
InChI=1S/C10H14N2/c1-9(5-3-4-6-11)7-10(2)8-12/h7,10H,3-5H2,1-2H3/b9-7+

> <INCHIKEY_DTXCID>
YVLNGQFWHIEHIK-VQHVLOKHSA-N

> <MONOISOTOPIC_MASS_DTXCID>
162.115698459

> <EXPOCAST_MEDIAN_EXPOSURE_PREDICTION_MG/KG-BW/DAY>
-

> <EXPOCAST>
0

> <NHANES>
0

> <DATA_SOURCES>
1

> <TOXVAL_DATA>
0

> <TOXCAST_PERCENT_ACTIVE>
-

> <TOXCAST_NUMBER_OF_ASSAYS/TOTAL>
-

> <NUMBER_OF_PUBMED_ARTICLES>
-

> <PUBCHEM_DATA_SOURCES>
7

> <CPDAT_COUNT>
-

> <ATMOSPHERIC_HYDROXYLATION_RATE_(AOH)_CM3/MOLECULE*SEC_OPERA_PRED>
9.84967e-11

> <BIOCONCENTRATION_FACTOR_OPERA_PRED>
17.6355

> <BIODEGRADATION_HALF_LIFE_DAYS_DAYS_OPERA_PRED>
3.53775

> <BOILING_POINT_DEGC_OPERA_PRED>
284.195

> <HENRYS_LAW_ATM-M3/MOLE_OPERA_PRED>
4.43156e-08

> <OPERA_KM_DAYS_OPERA_PRED>
1.30074

> <OCTANOL_AIR_PARTITION_COEFF_LOGKOA_OPERA_PRED>
5.72613

> <SOIL_ADSORPTION_COEFFICIENT_KOC_L/KG_OPERA_PRED>
216.266

> <OCTANOL_WATER_PARTITION_LOGP_OPERA_PRED>
0.975656

> <MELTING_POINT_DEGC_OPERA_PRED>
19.2288

> <VAPOR_PRESSURE_MMHG_OPERA_PRED>
0.00627291

> <WATER_SOLUBILITY_MOL/L_OPERA_PRED>
0.0959782

> <TEST_BCF_TEST_PRED>
26.0016

> <BOILING_POINT_DEGC_TEST_PRED>
265.546

> <DENSITY_G/CM^3_TEST_PRED>
0.926

> <FLASH_POINT_DEGC_TEST_PRED>
122.288

> <MELTING_POINT_DEGC_TEST_PRED>
0.654

> <SURFACE_TENSION_DYN/CM_TEST_PRED>
35.324

> <THERMAL_CONDUCTIVITY_MW/(M*K)_TEST_PRED>
-

> <VISCOSITY_CP_CP_TEST_PRED>
1.99526

> <VAPOR_PRESSURE_MMHG_TEST_PRED>
0.0119124

> <WATER_SOLUBILITY_MOL/L_TEST_PRED>
0.00485288

> <AEGLVALUES>
0

> <ALGALTOX>
0

> <ARCHEMICALS>
0

> <ATSDRLST>
0

> <BISPHENOLS>
0

> <OEHHA>
0

> <CERAPP>
0

> <FUNNAMES>
0

> <KWRSJERPS>
0

> <EPACONS>
0

> <IRIS>
0

> <EPAHFR>
0

> <EUCOSMETICS>
0

> <FRENCHLIST>
0

> <HEROMAP>
0

> <ITNANTIBIOTIC>
0

> <KEMIMARKET>
0

> <MASSBANKREF>
0

> <MASSBANKEUSP>
0

> <NEMILIST>
0

> <NATADB>
0

> <NIOSHIDLH>
0

> <NIOSHICSC>
0

> <NIOSHNPG>
0

> <NIOSHSKIN>
0

> <NORMANCT15>
0

> <SFISHFLUORO>
0

> <NORMANPRI>
0

> <NORMANEWS>
0

> <PFASTRIER>
0

> <SWISSPHARMA>
0

> <PPRTVWEB>
0

> <STOCKHOLM>
0

> <STOFFIDENT>
0

> <SCDM>
0

> <EAWAGSURF>
0

> <SWISSPEST>
0

> <TOX21SL>
0

> <TOXCAST>
0

> <TOXCAST_E1K>
0

> <TOXCAST_PH1V2>
0

> <TOXCAST_PH2>
0

> <TOXCAST_PH3>
0

> <TOXCAST_PHASEI>
0

> <TOXCAST_PHASEII>
0

> <TOXCAST_PHASEIII>
0

> <TRIRELEASE>
0

> <TSCASURF>
0

> <UJIBADE>
0

> <ATHENSSUS>
0

> <UATHTARGETS>
0

$$$$
630741
  Mrv1611109291617242D          

  0  0  0     0  0            999 V3000
M  V30 BEGIN CTAB
M  V30 COUNTS 12 13 0 0 0
M  V30 BEGIN ATOM
M  V30 1 N 0.6422 -3.599 0 0
M  V30 2 C -0.5618 -2.6389 0 0
M  V30 3 C -1.8955 -3.4089 0 0
M  V30 4 C -3.2292 -2.6389 0 0
M  V30 5 C -3.2292 -1.0989 0 0
M  V30 6 C -1.8955 -0.3289 0 0
M  V30 7 C -0.5618 -1.0989 0 0
M  V30 8 C 0.6422 -0.1387 0 0
M  V30 9 N 0.2995 1.3627 0 0
M  V30 10 C 2.1436 -0.4814 0 0
M  V30 11 C 2.8117 -1.8689 0 0
M  V30 12 C 2.1436 -3.2564 0 0
M  V30 END ATOM
M  V30 BEGIN BOND
M  V30 1 1 1 2
M  V30 2 2 2 3
M  V30 3 1 3 4
M  V30 4 2 4 5
M  V30 5 1 5 6
M  V30 6 2 6 7
M  V30 7 1 7 2
M  V30 8 1 7 8
M  V30 9 1 8 9
M  V30 10 1 8 10
M  V30 11 1 10 11
M  V30 12 1 11 12
M  V30 13 1 12 1
M  V30 END BOND
M  V30 END CTAB
M  END

> <INPUT>
C10H14N2

> <FOUND_BY>
MS Ready Formula

> <DTXCID_INDIVIDUAL_COMPONENT>
DTXCID70890056

> <FORMULA_INDIVIDUAL_COMPONENT>
C10H14N2

> <SMILES_INDIVIDUAL_COMPONENT>
NC1CCCNC2=CC=CC=C12

> <MAPPED_DTXSID>
DTXSID40717004

> <PREFERRED_NAME_DTXSID>
(5S)-2,3,4,5-Tetrahydro-1H-1-benzazepin-5-amine

> <CASRN_DTXSID>
294196-07-9

> <FORMULA_MAPPED_DTXSID>
C10H14N2

> <SMILES_MAPPED_DTXSID>
N[C@H]1CCCNC2=CC=CC=C12

> <MS_READY_SMILES>
NC1CCCNC2=CC=CC=C12

> <INCHI_STRING_DTXCID>
InChI=1S/C10H14N2/c11-9-5-3-7-12-10-6-2-1-4-8(9)10/h1-2,4,6,9,12H,3,5,7,11H2

> <INCHIKEY_DTXCID>
HWCKTLUUWDOMTP-UHFFFAOYSA-N

> <MONOISOTOPIC_MASS_DTXCID>
162.115698459

> <EXPOCAST_MEDIAN_EXPOSURE_PREDICTION_MG/KG-BW/DAY>
-

> <EXPOCAST>
0

> <NHANES>
0

> <DATA_SOURCES>
1

> <TOXVAL_DATA>
0

> <TOXCAST_PERCENT_ACTIVE>
-

> <TOXCAST_NUMBER_OF_ASSAYS/TOTAL>
-

> <NUMBER_OF_PUBMED_ARTICLES>
-

> <PUBCHEM_DATA_SOURCES>
13

> <CPDAT_COUNT>
-

> <ATMOSPHERIC_HYDROXYLATION_RATE_(AOH)_CM3/MOLECULE*SEC_OPERA_PRED>
2.60554e-11

> <BIOCONCENTRATION_FACTOR_OPERA_PRED>
6.76858

> <BIODEGRADATION_HALF_LIFE_DAYS_DAYS_OPERA_PRED>
3.76803

> <BOILING_POINT_DEGC_OPERA_PRED>
261.284

> <HENRYS_LAW_ATM-M3/MOLE_OPERA_PRED>
6.62507e-08

> <OPERA_KM_DAYS_OPERA_PRED>
0.176492

> <OCTANOL_AIR_PARTITION_COEFF_LOGKOA_OPERA_PRED>
7.9582

> <SOIL_ADSORPTION_COEFFICIENT_KOC_L/KG_OPERA_PRED>
108.611

> <OCTANOL_WATER_PARTITION_LOGP_OPERA_PRED>
1.58485

> <MELTING_POINT_DEGC_OPERA_PRED>
92.1549

> <VAPOR_PRESSURE_MMHG_OPERA_PRED>
2.43264e-05

> <WATER_SOLUBILITY_MOL/L_OPERA_PRED>
0.272057

> <TEST_BCF_TEST_PRED>
10.5682

> <BOILING_POINT_DEGC_TEST_PRED>
292.393

> <DENSITY_G/CM^3_TEST_PRED>
1.064

> <FLASH_POINT_DEGC_TEST_PRED>
125.587

> <MELTING_POINT_DEGC_TEST_PRED>
102.092

> <SURFACE_TENSION_DYN/CM_TEST_PRED>
-

> <THERMAL_CONDUCTIVITY_MW/(M*K)_TEST_PRED>
179.121

> <VISCOSITY_CP_CP_TEST_PRED>
18.197

> <VAPOR_PRESSURE_MMHG_TEST_PRED>
9.7499e-06

> <WATER_SOLUBILITY_MOL/L_TEST_PRED>
0.0162555

> <AEGLVALUES>
0

> <ALGALTOX>
0

> <ARCHEMICALS>
0

> <ATSDRLST>
0

> <BISPHENOLS>
0

> <OEHHA>
0

> <CERAPP>
0

> <FUNNAMES>
0

> <KWRSJERPS>
0

> <EPACONS>
0

> <IRIS>
0

> <EPAHFR>
0

> <EUCOSMETICS>
0

> <FRENCHLIST>
0

> <HEROMAP>
0

> <ITNANTIBIOTIC>
0

> <KEMIMARKET>
0

> <MASSBANKREF>
0

> <MASSBANKEUSP>
0

> <NEMILIST>
0

> <NATADB>
0

> <NIOSHIDLH>
0

> <NIOSHICSC>
0

> <NIOSHNPG>
0

> <NIOSHSKIN>
0

> <NORMANCT15>
0

> <SFISHFLUORO>
0

> <NORMANPRI>
0

> <NORMANEWS>
0

> <PFASTRIER>
0

> <SWISSPHARMA>
0

> <PPRTVWEB>
0

> <STOCKHOLM>
0

> <STOFFIDENT>
0

> <SCDM>
0

> <EAWAGSURF>
0

> <SWISSPEST>
0

> <TOX21SL>
0

> <TOXCAST>
0

> <TOXCAST_E1K>
0

> <TOXCAST_PH1V2>
0

> <TOXCAST_PH2>
0

> <TOXCAST_PH3>
0

> <TOXCAST_PHASEI>
0

> <TOXCAST_PHASEII>
0

> <TOXCAST_PHASEIII>
0

> <TRIRELEASE>
0

> <TSCASURF>
0

> <UJIBADE>
0

> <ATHENSSUS>
0

> <UATHTARGETS>
0

$$$$
DTXCID00674462
  Mrv1611103061714272D          

  0  0  0     0  0            999 V3000
M  V30 BEGIN CTAB
M  V30 COUNTS 12 13 0 0 0
M  V30 BEGIN ATOM
M  V30 1 N -1.2175 -1.5554 0 0
M  V30 2 C 0.0284 -2.4605 0 0
M  V30 3 C 1.493 -1.9847 0 0
M  V30 4 N 1.8132 -0.4783 0 0
M  V30 5 C 3.2778 -0.0024 0 0
M  V30 6 C 4.4222 -1.0329 0 0
M  V30 7 C 4.1021 -2.5392 0 0
M  V30 8 C 2.6374 -3.0151 0 0
M  V30 9 C -0.4475 -3.9252 0 0
M  V30 10 C -1.9875 -3.9252 0 0
M  V30 11 C -2.4634 -2.4605 0 0
M  V30 12 C -1.2175 -0.0154 0 0
M  V30 END ATOM
M  V30 BEGIN BOND
M  V30 1 1 1 2
M  V30 2 1 2 3
M  V30 3 2 3 4
M  V30 4 1 4 5
M  V30 5 2 5 6
M  V30 6 1 6 7
M  V30 7 2 7 8
M  V30 8 1 8 3
M  V30 9 1 2 9
M  V30 10 1 9 10
M  V30 11 1 10 11
M  V30 12 1 11 1
M  V30 13 1 1 12
M  V30 END BOND
M  V30 END CTAB
M  END

> <INPUT>
C10H14N2

> <FOUND_BY>
MS Ready Formula

> <DTXCID_INDIVIDUAL_COMPONENT>
DTXCID601020683

> <FORMULA_INDIVIDUAL_COMPONENT>
C10H14N2

> <SMILES_INDIVIDUAL_COMPONENT>
CN1CCCC1C1=NC=CC=C1

> <MAPPED_DTXSID>
DTXSID50723717

> <PREFERRED_NAME_DTXSID>
Perchloric acid--2-(1-methylpyrrolidin-2-yl)pyridine (2/1)

> <CASRN_DTXSID>
147663-86-3

> <FORMULA_MAPPED_DTXSID>
C10H16Cl2N2O8

> <SMILES_MAPPED_DTXSID>
O[Cl](=O)(=O)=O.O[Cl](=O)(=O)=O.CN1CCCC1C1=CC=CC=N1

> <MS_READY_SMILES>
CN1CCCC1C1=NC=CC=C1

> <INCHI_STRING_DTXCID>
InChI=1S/C10H14N2/c1-12-8-4-6-10(12)9-5-2-3-7-11-9/h2-3,5,7,10H,4,6,8H2,1H3

> <INCHIKEY_DTXCID>
AQCRXZYYMOXFAN-UHFFFAOYSA-N

> <MONOISOTOPIC_MASS_DTXCID>
162.115698459

> <EXPOCAST_MEDIAN_EXPOSURE_PREDICTION_MG/KG-BW/DAY>
-

> <EXPOCAST>
0

> <NHANES>
0

> <DATA_SOURCES>
1

> <TOXVAL_DATA>
0

> <TOXCAST_PERCENT_ACTIVE>
-

> <TOXCAST_NUMBER_OF_ASSAYS/TOTAL>
-

> <NUMBER_OF_PUBMED_ARTICLES>
-

> <PUBCHEM_DATA_SOURCES>
7

> <CPDAT_COUNT>
-

> <ATMOSPHERIC_HYDROXYLATION_RATE_(AOH)_CM3/MOLECULE*SEC_OPERA_PRED>
-

> <BIOCONCENTRATION_FACTOR_OPERA_PRED>
-

> <BIODEGRADATION_HALF_LIFE_DAYS_DAYS_OPERA_PRED>
-

> <BOILING_POINT_DEGC_OPERA_PRED>
-

> <HENRYS_LAW_ATM-M3/MOLE_OPERA_PRED>
-

> <OPERA_KM_DAYS_OPERA_PRED>
-

> <OCTANOL_AIR_PARTITION_COEFF_LOGKOA_OPERA_PRED>
-

> <SOIL_ADSORPTION_COEFFICIENT_KOC_L/KG_OPERA_PRED>
-

> <OCTANOL_WATER_PARTITION_LOGP_OPERA_PRED>
-

> <MELTING_POINT_DEGC_OPERA_PRED>
-

> <VAPOR_PRESSURE_MMHG_OPERA_PRED>
-

> <WATER_SOLUBILITY_MOL/L_OPERA_PRED>
-

> <TEST_BCF_TEST_PRED>
-

> <BOILING_POINT_DEGC_TEST_PRED>
-

> <DENSITY_G/CM^3_TEST_PRED>
-

> <FLASH_POINT_DEGC_TEST_PRED>
-

> <MELTING_POINT_DEGC_TEST_PRED>
-

> <SURFACE_TENSION_DYN/CM_TEST_PRED>
-

> <THERMAL_CONDUCTIVITY_MW/(M*K)_TEST_PRED>
-

> <VISCOSITY_CP_CP_TEST_PRED>
-

> <VAPOR_PRESSURE_MMHG_TEST_PRED>
-

> <WATER_SOLUBILITY_MOL/L_TEST_PRED>
-

> <AEGLVALUES>
0

> <ALGALTOX>
0

> <ARCHEMICALS>
0

> <ATSDRLST>
0

> <BISPHENOLS>
0

> <OEHHA>
0

> <CERAPP>
0

> <FUNNAMES>
0

> <KWRSJERPS>
0

> <EPACONS>
0

> <IRIS>
0

> <EPAHFR>
0

> <EUCOSMETICS>
0

> <FRENCHLIST>
0

> <HEROMAP>
0

> <ITNANTIBIOTIC>
0

> <KEMIMARKET>
0

> <MASSBANKREF>
0

> <MASSBANKEUSP>
0

> <NEMILIST>
0

> <NATADB>
0

> <NIOSHIDLH>
0

> <NIOSHICSC>
0

> <NIOSHNPG>
0

> <NIOSHSKIN>
0

> <NORMANCT15>
0

> <SFISHFLUORO>
0

> <NORMANPRI>
0

> <NORMANEWS>
0

> <PFASTRIER>
0

> <SWISSPHARMA>
0

> <PPRTVWEB>
0

> <STOCKHOLM>
0

> <STOFFIDENT>
0

> <SCDM>
0

> <EAWAGSURF>
0

> <SWISSPEST>
0

> <TOX21SL>
0

> <TOXCAST>
0

> <TOXCAST_E1K>
0

> <TOXCAST_PH1V2>
0

> <TOXCAST_PH2>
0

> <TOXCAST_PH3>
0

> <TOXCAST_PHASEI>
0

> <TOXCAST_PHASEII>
0

> <TOXCAST_PHASEIII>
0

> <TRIRELEASE>
0

> <TSCASURF>
0

> <UJIBADE>
0

> <ATHENSSUS>
0

> <UATHTARGETS>
0

$$$$
676757
  Mrv1611109301622492D          

  0  0  0     0  0            999 V3000
M  V30 BEGIN CTAB
M  V30 COUNTS 12 13 0 0 0
M  V30 BEGIN ATOM
M  V30 1 N -4.1076 -0.3617 0 0
M  V30 2 C -2.7739 0.4083 0 0
M  V30 3 C -2.7739 1.9483 0 0
M  V30 4 C -1.4402 2.7183 0 0
M  V30 5 C -0.1065 1.9483 0 0
M  V30 6 C 1.2271 2.7183 0 0
M  V30 7 C 2.5608 1.9483 0 0
M  V30 8 C 2.5608 0.4083 0 0
M  V30 9 C 1.2271 -0.3617 0 0
M  V30 10 C -0.1065 0.4083 0 0
M  V30 11 C -1.4402 -0.3617 0 0
M  V30 12 N -1.4402 -1.9017 0 0
M  V30 END ATOM
M  V30 BEGIN BOND
M  V30 1 1 1 2
M  V30 2 1 2 3
M  V30 3 1 3 4
M  V30 4 1 4 5
M  V30 5 2 5 6
M  V30 6 1 6 7
M  V30 7 2 7 8
M  V30 8 1 8 9
M  V30 9 2 9 10
M  V30 10 1 10 5
M  V30 11 1 10 11
M  V30 12 1 11 2
M  V30 13 1 11 12
M  V30 END BOND
M  V30 END CTAB
M  END

> <INPUT>
C10H14N2

> <FOUND_BY>
MS Ready Formula

> <DTXCID_INDIVIDUAL_COMPONENT>
DTXCID90996165

> <FORMULA_INDIVIDUAL_COMPONENT>
C10H14N2

> <SMILES_INDIVIDUAL_COMPONENT>
NC1CCC2=CC=CC=C2C1N

> <MAPPED_DTXSID>
DTXSID60726012

> <PREFERRED_NAME_DTXSID>
(1S,2R)-1,2,3,4-Tetrahydronaphthalene-1,2-diamine

> <CASRN_DTXSID>
426262-27-3

> <FORMULA_MAPPED_DTXSID>
C10H14N2

> <SMILES_MAPPED_DTXSID>
N[C@@H]1CCC2=CC=CC=C2[C@@H]1N

> <MS_READY_SMILES>
NC1CCC2=CC=CC=C2C1N

> <INCHI_STRING_DTXCID>
InChI=1S/C10H14N2/c11-9-6-5-7-3-1-2-4-8(7)10(9)12/h1-4,9-10H,5-6,11-12H2

> <INCHIKEY_DTXCID>
VLSRPVYKKHYHON-UHFFFAOYSA-N

> <MONOISOTOPIC_MASS_DTXCID>
162.115698459

> <EXPOCAST_MEDIAN_EXPOSURE_PREDICTION_MG/KG-BW/DAY>
-

> <EXPOCAST>
0

> <NHANES>
0

> <DATA_SOURCES>
1

> <TOXVAL_DATA>
0

> <TOXCAST_PERCENT_ACTIVE>
-

> <TOXCAST_NUMBER_OF_ASSAYS/TOTAL>
-

> <NUMBER_OF_PUBMED_ARTICLES>
-

> <PUBCHEM_DATA_SOURCES>
6

> <CPDAT_COUNT>
-

> <ATMOSPHERIC_HYDROXYLATION_RATE_(AOH)_CM3/MOLECULE*SEC_OPERA_PRED>
2.40526e-11

> <BIOCONCENTRATION_FACTOR_OPERA_PRED>
4.65165

> <BIODEGRADATION_HALF_LIFE_DAYS_DAYS_OPERA_PRED>
8.00562

> <BOILING_POINT_DEGC_OPERA_PRED>
263.961

> <HENRYS_LAW_ATM-M3/MOLE_OPERA_PRED>
1.63938e-07

> <OPERA_KM_DAYS_OPERA_PRED>
0.177073

> <OCTANOL_AIR_PARTITION_COEFF_LOGKOA_OPERA_PRED>
7.95075

> <SOIL_ADSORPTION_COEFFICIENT_KOC_L/KG_OPERA_PRED>
139.08

> <OCTANOL_WATER_PARTITION_LOGP_OPERA_PRED>
0.657495

> <MELTING_POINT_DEGC_OPERA_PRED>
69.4312

> <VAPOR_PRESSURE_MMHG_OPERA_PRED>
0.00021998

> <WATER_SOLUBILITY_MOL/L_OPERA_PRED>
0.00294961

> <TEST_BCF_TEST_PRED>
4.25598

> <BOILING_POINT_DEGC_TEST_PRED>
264.374

> <DENSITY_G/CM^3_TEST_PRED>
1.067

> <FLASH_POINT_DEGC_TEST_PRED>
122.809

> <MELTING_POINT_DEGC_TEST_PRED>
118.119

> <SURFACE_TENSION_DYN/CM_TEST_PRED>
-

> <THERMAL_CONDUCTIVITY_MW/(M*K)_TEST_PRED>
-

> <VISCOSITY_CP_CP_TEST_PRED>
17.0608

> <VAPOR_PRESSURE_MMHG_TEST_PRED>
1.92309e-05

> <WATER_SOLUBILITY_MOL/L_TEST_PRED>
0.0249459

> <AEGLVALUES>
0

> <ALGALTOX>
0

> <ARCHEMICALS>
0

> <ATSDRLST>
0

> <BISPHENOLS>
0

> <OEHHA>
0

> <CERAPP>
0

> <FUNNAMES>
0

> <KWRSJERPS>
0

> <EPACONS>
0

> <IRIS>
0

> <EPAHFR>
0

> <EUCOSMETICS>
0

> <FRENCHLIST>
0

> <HEROMAP>
0

> <ITNANTIBIOTIC>
0

> <KEMIMARKET>
0

> <MASSBANKREF>
0

> <MASSBANKEUSP>
0

> <NEMILIST>
0

> <NATADB>
0

> <NIOSHIDLH>
0

> <NIOSHICSC>
0

> <NIOSHNPG>
0

> <NIOSHSKIN>
0

> <NORMANCT15>
0

> <SFISHFLUORO>
0

> <NORMANPRI>
0

> <NORMANEWS>
0

> <PFASTRIER>
0

> <SWISSPHARMA>
0

> <PPRTVWEB>
0

> <STOCKHOLM>
0

> <STOFFIDENT>
0

> <SCDM>
0

> <EAWAGSURF>
0

> <SWISSPEST>
0

> <TOX21SL>
0

> <TOXCAST>
0

> <TOXCAST_E1K>
0

> <TOXCAST_PH1V2>
0

> <TOXCAST_PH2>
0

> <TOXCAST_PH3>
0

> <TOXCAST_PHASEI>
0

> <TOXCAST_PHASEII>
0

> <TOXCAST_PHASEIII>
0

> <TRIRELEASE>
0

> <TSCASURF>
0

> <UJIBADE>
0

> <ATHENSSUS>
0

> <UATHTARGETS>
0

$$$$

  Mrv1533009301520372D          

  0  0  0     0  0            999 V3000
M  V30 BEGIN CTAB
M  V30 COUNTS 12 13 0 0 0
M  V30 BEGIN ATOM
M  V30 1 N 4.4266 3.0891 0 0
M  V30 2 N 4.4266 -3.0891 0 0
M  V30 3 C 8.1273 0 0 0
M  V30 4 C 7.2259 1.2428 0 0
M  V30 5 C 7.2259 -1.2428 0 0
M  V30 6 C 5.7643 0.7722 0 0
M  V30 7 C 5.7643 -0.7722 0 0
M  V30 8 C 9.6718 0 0 0
M  V30 9 C 4.4266 1.5445 0 0
M  V30 10 C 4.4266 -1.5445 0 0
M  V30 11 C 3.0891 0.7722 0 0
M  V30 12 C 3.0891 -0.7722 0 0
M  V30 END ATOM
M  V30 BEGIN BOND
M  V30 1 1 1 9
M  V30 2 1 2 10
M  V30 3 1 3 4
M  V30 4 1 3 5
M  V30 5 1 3 8
M  V30 6 1 4 6
M  V30 7 1 5 7
M  V30 8 1 6 7
M  V30 9 2 6 9
M  V30 10 2 7 10
M  V30 11 1 9 11
M  V30 12 1 10 12
M  V30 13 2 11 12
M  V30 END BOND
M  V30 END CTAB
M  END

> <INPUT>
C10H14N2

> <FOUND_BY>
MS Ready Formula

> <DTXCID_INDIVIDUAL_COMPONENT>
DTXCID90680875

> <FORMULA_INDIVIDUAL_COMPONENT>
C10H14N2

> <SMILES_INDIVIDUAL_COMPONENT>
CC1CC2=C(N)C=CC(N)=C2C1

> <MAPPED_DTXSID>
DTXSID80730131

> <PREFERRED_NAME_DTXSID>
2-Methyl-2,3-dihydro-1H-indene-4,7-diamine

> <CASRN_DTXSID>
917805-31-3

> <FORMULA_MAPPED_DTXSID>
C10H14N2

> <SMILES_MAPPED_DTXSID>
CC1CC2=C(N)C=CC(N)=C2C1

> <MS_READY_SMILES>
CC1CC2=C(N)C=CC(N)=C2C1

> <INCHI_STRING_DTXCID>
InChI=1S/C10H14N2/c1-6-4-7-8(5-6)10(12)3-2-9(7)11/h2-3,6H,4-5,11-12H2,1H3

> <INCHIKEY_DTXCID>
BOPDDZMXSVMRIX-UHFFFAOYSA-N

> <MONOISOTOPIC_MASS_DTXCID>
162.115698459

> <EXPOCAST_MEDIAN_EXPOSURE_PREDICTION_MG/KG-BW/DAY>
-

> <EXPOCAST>
0

> <NHANES>
0

> <DATA_SOURCES>
1

> <TOXVAL_DATA>
0

> <TOXCAST_PERCENT_ACTIVE>
-

> <TOXCAST_NUMBER_OF_ASSAYS/TOTAL>
-

> <NUMBER_OF_PUBMED_ARTICLES>
-

> <PUBCHEM_DATA_SOURCES>
7

> <CPDAT_COUNT>
-

> <ATMOSPHERIC_HYDROXYLATION_RATE_(AOH)_CM3/MOLECULE*SEC_OPERA_PRED>
2.84342e-11

> <BIOCONCENTRATION_FACTOR_OPERA_PRED>
15.2469

> <BIODEGRADATION_HALF_LIFE_DAYS_DAYS_OPERA_PRED>
6.30366

> <BOILING_POINT_DEGC_OPERA_PRED>
263.953

> <HENRYS_LAW_ATM-M3/MOLE_OPERA_PRED>
7.01378e-08

> <OPERA_KM_DAYS_OPERA_PRED>
0.177034

> <OCTANOL_AIR_PARTITION_COEFF_LOGKOA_OPERA_PRED>
8.0855

> <SOIL_ADSORPTION_COEFFICIENT_KOC_L/KG_OPERA_PRED>
1453.6

> <OCTANOL_WATER_PARTITION_LOGP_OPERA_PRED>
1.47086

> <MELTING_POINT_DEGC_OPERA_PRED>
98.516

> <VAPOR_PRESSURE_MMHG_OPERA_PRED>
0.000165037

> <WATER_SOLUBILITY_MOL/L_OPERA_PRED>
0.00390811

> <TEST_BCF_TEST_PRED>
8.91251

> <BOILING_POINT_DEGC_TEST_PRED>
294.813

> <DENSITY_G/CM^3_TEST_PRED>
1.182

> <FLASH_POINT_DEGC_TEST_PRED>
173.26

> <MELTING_POINT_DEGC_TEST_PRED>
99.704

> <SURFACE_TENSION_DYN/CM_TEST_PRED>
-

> <THERMAL_CONDUCTIVITY_MW/(M*K)_TEST_PRED>
-

> <VISCOSITY_CP_CP_TEST_PRED>
12.388

> <VAPOR_PRESSURE_MMHG_TEST_PRED>
8.20352e-05

> <WATER_SOLUBILITY_MOL/L_TEST_PRED>
0.00295121

> <AEGLVALUES>
0

> <ALGALTOX>
0

> <ARCHEMICALS>
0

> <ATSDRLST>
0

> <BISPHENOLS>
0

> <OEHHA>
0

> <CERAPP>
0

> <FUNNAMES>
0

> <KWRSJERPS>
0

> <EPACONS>
0

> <IRIS>
0

> <EPAHFR>
0

> <EUCOSMETICS>
0

> <FRENCHLIST>
0

> <HEROMAP>
0

> <ITNANTIBIOTIC>
0

> <KEMIMARKET>
0

> <MASSBANKREF>
0

> <MASSBANKEUSP>
0

> <NEMILIST>
0

> <NATADB>
0

> <NIOSHIDLH>
0

> <NIOSHICSC>
0

> <NIOSHNPG>
0

> <NIOSHSKIN>
0

> <NORMANCT15>
0

> <SFISHFLUORO>
0

> <NORMANPRI>
0

> <NORMANEWS>
0

> <PFASTRIER>
0

> <SWISSPHARMA>
0

> <PPRTVWEB>
0

> <STOCKHOLM>
0

> <STOFFIDENT>
0

> <SCDM>
0

> <EAWAGSURF>
0

> <SWISSPEST>
0

> <TOX21SL>
0

> <TOXCAST>
0

> <TOXCAST_E1K>
0

> <TOXCAST_PH1V2>
0

> <TOXCAST_PH2>
0

> <TOXCAST_PH3>
0

> <TOXCAST_PHASEI>
0

> <TOXCAST_PHASEII>
0

> <TOXCAST_PHASEIII>
0

> <TRIRELEASE>
0

> <TSCASURF>
0

> <UJIBADE>
0

> <ATHENSSUS>
0

> <UATHTARGETS>
0

$$$$
680883
  Mrv1611109301622542D          

  0  0  0     0  0            999 V3000
M  V30 BEGIN CTAB
M  V30 COUNTS 12 13 0 0 0
M  V30 BEGIN ATOM
M  V30 1 N 0.3934 4.1529 0 0
M  V30 2 C 0.3934 2.6129 0 0
M  V30 3 C 1.7271 1.8429 0 0
M  V30 4 C 1.7271 0.3029 0 0
M  V30 5 C 0.3934 -0.4671 0 0
M  V30 6 N 0.3934 -2.0071 0 0
M  V30 7 C -0.9403 0.3029 0 0
M  V30 8 C -2.4049 -0.173 0 0
M  V30 9 C -3.3101 1.0729 0 0
M  V30 10 C -2.4049 2.3188 0 0
M  V30 11 C -2.8808 3.7834 0 0
M  V30 12 C -0.9403 1.8429 0 0
M  V30 END ATOM
M  V30 BEGIN BOND
M  V30 1 1 1 2
M  V30 2 2 2 3
M  V30 3 1 3 4
M  V30 4 2 4 5
M  V30 5 1 5 6
M  V30 6 1 5 7
M  V30 7 1 7 8
M  V30 8 1 8 9
M  V30 9 1 9 10
M  V30 10 1 10 11
M  V30 11 1 10 12
M  V30 12 1 12 2
M  V30 13 2 12 7
M  V30 END BOND
M  V30 END CTAB
M  END

> <INPUT>
C10H14N2

> <FOUND_BY>
MS Ready Formula

> <DTXCID_INDIVIDUAL_COMPONENT>
DTXCID20996794

> <FORMULA_INDIVIDUAL_COMPONENT>
C10H14N2

> <SMILES_INDIVIDUAL_COMPONENT>
CC1CCC2=C1C(N)=CC=C2N

> <MAPPED_DTXSID>
DTXSID60730139

> <PREFERRED_NAME_DTXSID>
1-Methyl-2,3-dihydro-1H-indene-4,7-diamine

> <CASRN_DTXSID>
917805-30-2

> <FORMULA_MAPPED_DTXSID>
C10H14N2

> <SMILES_MAPPED_DTXSID>
CC1CCC2=C(N)C=CC(N)=C12

> <MS_READY_SMILES>
CC1CCC2=C1C(N)=CC=C2N

> <INCHI_STRING_DTXCID>
InChI=1S/C10H14N2/c1-6-2-3-7-8(11)4-5-9(12)10(6)7/h4-6H,2-3,11-12H2,1H3

> <INCHIKEY_DTXCID>
BDTXWMGGWAYDTD-UHFFFAOYSA-N

> <MONOISOTOPIC_MASS_DTXCID>
162.115698459

> <EXPOCAST_MEDIAN_EXPOSURE_PREDICTION_MG/KG-BW/DAY>
-

> <EXPOCAST>
0

> <NHANES>
0

> <DATA_SOURCES>
1

> <TOXVAL_DATA>
0

> <TOXCAST_PERCENT_ACTIVE>
-

> <TOXCAST_NUMBER_OF_ASSAYS/TOTAL>
-

> <NUMBER_OF_PUBMED_ARTICLES>
-

> <PUBCHEM_DATA_SOURCES>
7

> <CPDAT_COUNT>
-

> <ATMOSPHERIC_HYDROXYLATION_RATE_(AOH)_CM3/MOLECULE*SEC_OPERA_PRED>
2.79455e-11

> <BIOCONCENTRATION_FACTOR_OPERA_PRED>
14.8061

> <BIODEGRADATION_HALF_LIFE_DAYS_DAYS_OPERA_PRED>
4.08419

> <BOILING_POINT_DEGC_OPERA_PRED>
263.957

> <HENRYS_LAW_ATM-M3/MOLE_OPERA_PRED>
6.99782e-08

> <OPERA_KM_DAYS_OPERA_PRED>
0.176722

> <OCTANOL_AIR_PARTITION_COEFF_LOGKOA_OPERA_PRED>
8.0855

> <SOIL_ADSORPTION_COEFFICIENT_KOC_L/KG_OPERA_PRED>
1503.6

> <OCTANOL_WATER_PARTITION_LOGP_OPERA_PRED>
2.27326

> <MELTING_POINT_DEGC_OPERA_PRED>
98.6005

> <VAPOR_PRESSURE_MMHG_OPERA_PRED>
0.000176353

> <WATER_SOLUBILITY_MOL/L_OPERA_PRED>
0.00390811

> <TEST_BCF_TEST_PRED>
10.2565

> <BOILING_POINT_DEGC_TEST_PRED>
295.734

> <DENSITY_G/CM^3_TEST_PRED>
1.211

> <FLASH_POINT_DEGC_TEST_PRED>
171.285

> <MELTING_POINT_DEGC_TEST_PRED>
114.74

> <SURFACE_TENSION_DYN/CM_TEST_PRED>
-

> <THERMAL_CONDUCTIVITY_MW/(M*K)_TEST_PRED>
-

> <VISCOSITY_CP_CP_TEST_PRED>
9.22571

> <VAPOR_PRESSURE_MMHG_TEST_PRED>
1.3213e-05

> <WATER_SOLUBILITY_MOL/L_TEST_PRED>
0.00295121

> <AEGLVALUES>
0

> <ALGALTOX>
0

> <ARCHEMICALS>
0

> <ATSDRLST>
0

> <BISPHENOLS>
0

> <OEHHA>
0

> <CERAPP>
0

> <FUNNAMES>
0

> <KWRSJERPS>
0

> <EPACONS>
0

> <IRIS>
0

> <EPAHFR>
0

> <EUCOSMETICS>
0

> <FRENCHLIST>
0

> <HEROMAP>
0

> <ITNANTIBIOTIC>
0

> <KEMIMARKET>
0

> <MASSBANKREF>
0

> <MASSBANKEUSP>
0

> <NEMILIST>
0

> <NATADB>
0

> <NIOSHIDLH>
0

> <NIOSHICSC>
0

> <NIOSHNPG>
0

> <NIOSHSKIN>
0

> <NORMANCT15>
0

> <SFISHFLUORO>
0

> <NORMANPRI>
0

> <NORMANEWS>
0

> <PFASTRIER>
0

> <SWISSPHARMA>
0

> <PPRTVWEB>
0

> <STOCKHOLM>
0

> <STOFFIDENT>
0

> <SCDM>
0

> <EAWAGSURF>
0

> <SWISSPEST>
0

> <TOX21SL>
0

> <TOXCAST>
0

> <TOXCAST_E1K>
0

> <TOXCAST_PH1V2>
0

> <TOXCAST_PH2>
0

> <TOXCAST_PH3>
0

> <TOXCAST_PHASEI>
0

> <TOXCAST_PHASEII>
0

> <TOXCAST_PHASEIII>
0

> <TRIRELEASE>
0

> <TSCASURF>
0

> <UJIBADE>
0

> <ATHENSSUS>
0

> <UATHTARGETS>
0

$$$$

  Mrv1533009301520372D          

  0  0  0     0  0            999 V3000
M  V30 BEGIN CTAB
M  V30 COUNTS 12 13 0 0 0
M  V30 BEGIN ATOM
M  V30 1 N 8.4577 -0.6113 0 0
M  V30 2 N 5.7473 -2.0979 0 0
M  V30 3 C 8.4577 2.5753 0 0
M  V30 4 C 9.853 1.7842 0 0
M  V30 5 C 7.081 1.7521 0 0
M  V30 6 C 9.853 0.1799 0 0
M  V30 7 C 7.081 0.2121 0 0
M  V30 8 C 5.7473 2.5221 0 0
M  V30 9 C 5.7473 -0.5579 0 0
M  V30 10 C 4.4135 1.7521 0 0
M  V30 11 C 4.4135 0.2121 0 0
M  V30 12 C 3.08 2.5221 0 0
M  V30 END ATOM
M  V30 BEGIN BOND
M  V30 1 1 1 6
M  V30 2 1 1 7
M  V30 3 1 2 9
M  V30 4 1 3 4
M  V30 5 1 3 5
M  V30 6 1 4 6
M  V30 7 2 5 7
M  V30 8 1 5 8
M  V30 9 1 7 9
M  V30 10 2 8 10
M  V30 11 2 9 11
M  V30 12 1 10 11
M  V30 13 1 10 12
M  V30 END BOND
M  V30 END CTAB
M  END

> <INPUT>
C10H14N2

> <FOUND_BY>
MS Ready Formula

> <DTXCID_INDIVIDUAL_COMPONENT>
DTXCID80681038

> <FORMULA_INDIVIDUAL_COMPONENT>
C10H14N2

> <SMILES_INDIVIDUAL_COMPONENT>
CC1=CC2=C(NCCC2)C(N)=C1

> <MAPPED_DTXSID>
DTXSID00730294

> <PREFERRED_NAME_DTXSID>
6-Methyl-1,2,3,4-tetrahydroquinolin-8-amine

> <CASRN_DTXSID>
160431-50-5

> <FORMULA_MAPPED_DTXSID>
C10H14N2

> <SMILES_MAPPED_DTXSID>
CC1=CC2=C(NCCC2)C(N)=C1

> <MS_READY_SMILES>
CC1=CC2=C(NCCC2)C(N)=C1

> <INCHI_STRING_DTXCID>
InChI=1S/C10H14N2/c1-7-5-8-3-2-4-12-10(8)9(11)6-7/h5-6,12H,2-4,11H2,1H3

> <INCHIKEY_DTXCID>
GLOWZAPATGRICO-UHFFFAOYSA-N

> <MONOISOTOPIC_MASS_DTXCID>
162.115698459

> <EXPOCAST_MEDIAN_EXPOSURE_PREDICTION_MG/KG-BW/DAY>
-

> <EXPOCAST>
0

> <NHANES>
0

> <DATA_SOURCES>
1

> <TOXVAL_DATA>
0

> <TOXCAST_PERCENT_ACTIVE>
-

> <TOXCAST_NUMBER_OF_ASSAYS/TOTAL>
-

> <NUMBER_OF_PUBMED_ARTICLES>
-

> <PUBCHEM_DATA_SOURCES>
12

> <CPDAT_COUNT>
-

> <ATMOSPHERIC_HYDROXYLATION_RATE_(AOH)_CM3/MOLECULE*SEC_OPERA_PRED>
2.69487e-11

> <BIOCONCENTRATION_FACTOR_OPERA_PRED>
27.2274

> <BIODEGRADATION_HALF_LIFE_DAYS_DAYS_OPERA_PRED>
3.90906

> <BOILING_POINT_DEGC_OPERA_PRED>
264.695

> <HENRYS_LAW_ATM-M3/MOLE_OPERA_PRED>
3.60339e-08

> <OPERA_KM_DAYS_OPERA_PRED>
0.172551

> <OCTANOL_AIR_PARTITION_COEFF_LOGKOA_OPERA_PRED>
8.07869

> <SOIL_ADSORPTION_COEFFICIENT_KOC_L/KG_OPERA_PRED>
154.218

> <OCTANOL_WATER_PARTITION_LOGP_OPERA_PRED>
1.28379

> <MELTING_POINT_DEGC_OPERA_PRED>
112.605

> <VAPOR_PRESSURE_MMHG_OPERA_PRED>
3.31553e-05

> <WATER_SOLUBILITY_MOL/L_OPERA_PRED>
0.002361

> <TEST_BCF_TEST_PRED>
9.46237

> <BOILING_POINT_DEGC_TEST_PRED>
307.532

> <DENSITY_G/CM^3_TEST_PRED>
1.11

> <FLASH_POINT_DEGC_TEST_PRED>
162.518

> <MELTING_POINT_DEGC_TEST_PRED>
89.315

> <SURFACE_TENSION_DYN/CM_TEST_PRED>
-

> <THERMAL_CONDUCTIVITY_MW/(M*K)_TEST_PRED>
175.428

> <VISCOSITY_CP_CP_TEST_PRED>
11.298

> <VAPOR_PRESSURE_MMHG_TEST_PRED>
6.71429e-05

> <WATER_SOLUBILITY_MOL/L_TEST_PRED>
0.00319154

> <AEGLVALUES>
0

> <ALGALTOX>
0

> <ARCHEMICALS>
0

> <ATSDRLST>
0

> <BISPHENOLS>
0

> <OEHHA>
0

> <CERAPP>
0

> <FUNNAMES>
0

> <KWRSJERPS>
0

> <EPACONS>
0

> <IRIS>
0

> <EPAHFR>
0

> <EUCOSMETICS>
0

> <FRENCHLIST>
0

> <HEROMAP>
0

> <ITNANTIBIOTIC>
0

> <KEMIMARKET>
0

> <MASSBANKREF>
0

> <MASSBANKEUSP>
0

> <NEMILIST>
0

> <NATADB>
0

> <NIOSHIDLH>
0

> <NIOSHICSC>
0

> <NIOSHNPG>
0

> <NIOSHSKIN>
0

> <NORMANCT15>
0

> <SFISHFLUORO>
0

> <NORMANPRI>
0

> <NORMANEWS>
0

> <PFASTRIER>
0

> <SWISSPHARMA>
0

> <PPRTVWEB>
0

> <STOCKHOLM>
0

> <STOFFIDENT>
0

> <SCDM>
0

> <EAWAGSURF>
0

> <SWISSPEST>
0

> <TOX21SL>
0

> <TOXCAST>
0

> <TOXCAST_E1K>
0

> <TOXCAST_PH1V2>
0

> <TOXCAST_PH2>
0

> <TOXCAST_PH3>
0

> <TOXCAST_PHASEI>
0

> <TOXCAST_PHASEII>
0

> <TOXCAST_PHASEIII>
0

> <TRIRELEASE>
0

> <TSCASURF>
0

> <UJIBADE>
0

> <ATHENSSUS>
0

> <UATHTARGETS>
0

$$$$

  Mrv1533009301520402D          

  0  0  0     0  0            999 V3000
M  V30 BEGIN CTAB
M  V30 COUNTS 12 13 0 0 0
M  V30 BEGIN ATOM
M  V30 1 N 9.3653 -1.5183 0 0
M  V30 2 N 3.9069 1.2611 0 0
M  V30 3 C 9.3653 0.9604 0 0
M  V30 4 C 10.2641 -0.2789 0 0
M  V30 5 C 7.9081 0.4911 0 0
M  V30 6 C 7.9081 -1.0489 0 0
M  V30 7 C 10.6127 1.8635 0 0
M  V30 8 C 8.8921 2.4259 0 0
M  V30 9 C 6.5744 1.2611 0 0
M  V30 10 C 6.5744 -1.8189 0 0
M  V30 11 C 5.2407 0.4911 0 0
M  V30 12 C 5.2407 -1.0489 0 0
M  V30 END ATOM
M  V30 BEGIN BOND
M  V30 1 1 1 4
M  V30 2 1 1 6
M  V30 3 1 2 11
M  V30 4 1 3 4
M  V30 5 1 3 5
M  V30 6 1 3 7
M  V30 7 1 3 8
M  V30 8 2 5 6
M  V30 9 1 5 9
M  V30 10 1 6 10
M  V30 11 2 9 11
M  V30 12 2 10 12
M  V30 13 1 11 12
M  V30 END BOND
M  V30 END CTAB
M  END

> <INPUT>
C10H14N2

> <FOUND_BY>
MS Ready Formula

> <DTXCID_INDIVIDUAL_COMPONENT>
DTXCID80688981

> <FORMULA_INDIVIDUAL_COMPONENT>
C10H14N2

> <SMILES_INDIVIDUAL_COMPONENT>
CC1(C)CNC2=C1C=C(N)C=C2

> <MAPPED_DTXSID>
DTXSID20738237

> <PREFERRED_NAME_DTXSID>
3,3-Dimethyl-2,3-dihydro-1H-indol-5-amine

> <CASRN_DTXSID>
1158745-51-7

> <FORMULA_MAPPED_DTXSID>
C10H14N2

> <SMILES_MAPPED_DTXSID>
CC1(C)CNC2=C1C=C(N)C=C2

> <MS_READY_SMILES>
CC1(C)CNC2=C1C=C(N)C=C2

> <INCHI_STRING_DTXCID>
InChI=1S/C10H14N2/c1-10(2)6-12-9-4-3-7(11)5-8(9)10/h3-5,12H,6,11H2,1-2H3

> <INCHIKEY_DTXCID>
NLAMTLXEEAQDSL-UHFFFAOYSA-N

> <MONOISOTOPIC_MASS_DTXCID>
162.115698459

> <EXPOCAST_MEDIAN_EXPOSURE_PREDICTION_MG/KG-BW/DAY>
-

> <EXPOCAST>
0

> <NHANES>
0

> <DATA_SOURCES>
1

> <TOXVAL_DATA>
0

> <TOXCAST_PERCENT_ACTIVE>
-

> <TOXCAST_NUMBER_OF_ASSAYS/TOTAL>
-

> <NUMBER_OF_PUBMED_ARTICLES>
-

> <PUBCHEM_DATA_SOURCES>
10

> <CPDAT_COUNT>
-

> <ATMOSPHERIC_HYDROXYLATION_RATE_(AOH)_CM3/MOLECULE*SEC_OPERA_PRED>
2.73062e-11

> <BIOCONCENTRATION_FACTOR_OPERA_PRED>
12.7295

> <BIODEGRADATION_HALF_LIFE_DAYS_DAYS_OPERA_PRED>
3.82016

> <BOILING_POINT_DEGC_OPERA_PRED>
262.613

> <HENRYS_LAW_ATM-M3/MOLE_OPERA_PRED>
6.88488e-08

> <OPERA_KM_DAYS_OPERA_PRED>
0.129249

> <OCTANOL_AIR_PARTITION_COEFF_LOGKOA_OPERA_PRED>
7.95577

> <SOIL_ADSORPTION_COEFFICIENT_KOC_L/KG_OPERA_PRED>
724.948

> <OCTANOL_WATER_PARTITION_LOGP_OPERA_PRED>
2.43543

> <MELTING_POINT_DEGC_OPERA_PRED>
99.7514

> <VAPOR_PRESSURE_MMHG_OPERA_PRED>
7.09368e-05

> <WATER_SOLUBILITY_MOL/L_OPERA_PRED>
0.0619461

> <TEST_BCF_TEST_PRED>
16.3682

> <BOILING_POINT_DEGC_TEST_PRED>
293.326

> <DENSITY_G/CM^3_TEST_PRED>
1.079

> <FLASH_POINT_DEGC_TEST_PRED>
138.103

> <MELTING_POINT_DEGC_TEST_PRED>
99.444

> <SURFACE_TENSION_DYN/CM_TEST_PRED>
-

> <THERMAL_CONDUCTIVITY_MW/(M*K)_TEST_PRED>
167.123

> <VISCOSITY_CP_CP_TEST_PRED>
3.4435

> <VAPOR_PRESSURE_MMHG_TEST_PRED>
6.16595e-05

> <WATER_SOLUBILITY_MOL/L_TEST_PRED>
0.00258821

> <AEGLVALUES>
0

> <ALGALTOX>
0

> <ARCHEMICALS>
0

> <ATSDRLST>
0

> <BISPHENOLS>
0

> <OEHHA>
0

> <CERAPP>
0

> <FUNNAMES>
0

> <KWRSJERPS>
0

> <EPACONS>
0

> <IRIS>
0

> <EPAHFR>
0

> <EUCOSMETICS>
0

> <FRENCHLIST>
0

> <HEROMAP>
0

> <ITNANTIBIOTIC>
0

> <KEMIMARKET>
0

> <MASSBANKREF>
0

> <MASSBANKEUSP>
0

> <NEMILIST>
0

> <NATADB>
0

> <NIOSHIDLH>
0

> <NIOSHICSC>
0

> <NIOSHNPG>
0

> <NIOSHSKIN>
0

> <NORMANCT15>
0

> <SFISHFLUORO>
0

> <NORMANPRI>
0

> <NORMANEWS>
0

> <PFASTRIER>
0

> <SWISSPHARMA>
0

> <PPRTVWEB>
0

> <STOCKHOLM>
0

> <STOFFIDENT>
0

> <SCDM>
0

> <EAWAGSURF>
0

> <SWISSPEST>
0

> <TOX21SL>
0

> <TOXCAST>
0

> <TOXCAST_E1K>
0

> <TOXCAST_PH1V2>
0

> <TOXCAST_PH2>
0

> <TOXCAST_PH3>
0

> <TOXCAST_PHASEI>
0

> <TOXCAST_PHASEII>
0

> <TOXCAST_PHASEIII>
0

> <TRIRELEASE>
0

> <TSCASURF>
0

> <UJIBADE>
0

> <ATHENSSUS>
0

> <UATHTARGETS>
0

$$$$

  Mrv1533009301520422D          

  0  0  0     0  0            999 V3000
M  V30 BEGIN CTAB
M  V30 COUNTS 12 13 0 0 0
M  V30 BEGIN ATOM
M  V30 1 N 7.0812 -1.4368 0 0
M  V30 2 N 4.4137 -1.4368 0 0
M  V30 3 C 9.7485 1.6432 0 0
M  V30 4 C 11.2887 1.6432 0 0
M  V30 5 C 10.5187 2.977 0 0
M  V30 6 C 8.4149 0.8732 0 0
M  V30 7 C 7.0812 1.6432 0 0
M  V30 8 C 8.4149 -0.6668 0 0
M  V30 9 C 5.7475 0.8732 0 0
M  V30 10 C 5.7475 -0.6668 0 0
M  V30 11 C 3.08 -0.6668 0 0
M  V30 12 C 4.4137 -2.977 0 0
M  V30 END ATOM
M  V30 BEGIN BOND
M  V30 1 1 1 8
M  V30 2 2 1 10
M  V30 3 1 2 10
M  V30 4 1 2 11
M  V30 5 1 2 12
M  V30 6 1 3 4
M  V30 7 1 3 5
M  V30 8 1 3 6
M  V30 9 1 4 5
M  V30 10 1 6 7
M  V30 11 2 6 8
M  V30 12 2 7 9
M  V30 13 1 9 10
M  V30 END BOND
M  V30 END CTAB
M  END

> <INPUT>
C10H14N2

> <FOUND_BY>
MS Ready Formula

> <DTXCID_INDIVIDUAL_COMPONENT>
DTXCID50695849

> <FORMULA_INDIVIDUAL_COMPONENT>
C10H14N2

> <SMILES_INDIVIDUAL_COMPONENT>
CN(C)C1=NC=C(C=C1)C1CC1

> <MAPPED_DTXSID>
DTXSID40745105

> <PREFERRED_NAME_DTXSID>
5-Cyclopropyl-N,N-dimethylpyridin-2-amine

> <CASRN_DTXSID>
1245645-43-5

> <FORMULA_MAPPED_DTXSID>
C10H14N2

> <SMILES_MAPPED_DTXSID>
CN(C)C1=NC=C(C=C1)C1CC1

> <MS_READY_SMILES>
CN(C)C1=NC=C(C=C1)C1CC1

> <INCHI_STRING_DTXCID>
InChI=1S/C10H14N2/c1-12(2)10-6-5-9(7-11-10)8-3-4-8/h5-8H,3-4H2,1-2H3

> <INCHIKEY_DTXCID>
BJBLCBSSWLWCPO-UHFFFAOYSA-N

> <MONOISOTOPIC_MASS_DTXCID>
162.115698459

> <EXPOCAST_MEDIAN_EXPOSURE_PREDICTION_MG/KG-BW/DAY>
-

> <EXPOCAST>
0

> <NHANES>
0

> <DATA_SOURCES>
1

> <TOXVAL_DATA>
0

> <TOXCAST_PERCENT_ACTIVE>
-

> <TOXCAST_NUMBER_OF_ASSAYS/TOTAL>
-

> <NUMBER_OF_PUBMED_ARTICLES>
-

> <PUBCHEM_DATA_SOURCES>
11

> <CPDAT_COUNT>
-

> <ATMOSPHERIC_HYDROXYLATION_RATE_(AOH)_CM3/MOLECULE*SEC_OPERA_PRED>
4.30678e-11

> <BIOCONCENTRATION_FACTOR_OPERA_PRED>
7.04006

> <BIODEGRADATION_HALF_LIFE_DAYS_DAYS_OPERA_PRED>
3.36495

> <BOILING_POINT_DEGC_OPERA_PRED>
253.547

> <HENRYS_LAW_ATM-M3/MOLE_OPERA_PRED>
4.71671e-06

> <OPERA_KM_DAYS_OPERA_PRED>
1.9443

> <OCTANOL_AIR_PARTITION_COEFF_LOGKOA_OPERA_PRED>
6.13719

> <SOIL_ADSORPTION_COEFFICIENT_KOC_L/KG_OPERA_PRED>
206.694

> <OCTANOL_WATER_PARTITION_LOGP_OPERA_PRED>
1.88742

> <MELTING_POINT_DEGC_OPERA_PRED>
55.8173

> <VAPOR_PRESSURE_MMHG_OPERA_PRED>
0.002625

> <WATER_SOLUBILITY_MOL/L_OPERA_PRED>
0.0903257

> <TEST_BCF_TEST_PRED>
62.0869

> <BOILING_POINT_DEGC_TEST_PRED>
242.718

> <DENSITY_G/CM^3_TEST_PRED>
1.144

> <FLASH_POINT_DEGC_TEST_PRED>
107.946

> <MELTING_POINT_DEGC_TEST_PRED>
24.56

> <SURFACE_TENSION_DYN/CM_TEST_PRED>
34.141

> <THERMAL_CONDUCTIVITY_MW/(M*K)_TEST_PRED>
138.25

> <VISCOSITY_CP_CP_TEST_PRED>
3.71535

> <VAPOR_PRESSURE_MMHG_TEST_PRED>
0.00845279

> <WATER_SOLUBILITY_MOL/L_TEST_PRED>
0.00461318

> <AEGLVALUES>
0

> <ALGALTOX>
0

> <ARCHEMICALS>
0

> <ATSDRLST>
0

> <BISPHENOLS>
0

> <OEHHA>
0

> <CERAPP>
0

> <FUNNAMES>
0

> <KWRSJERPS>
0

> <EPACONS>
0

> <IRIS>
0

> <EPAHFR>
0

> <EUCOSMETICS>
0

> <FRENCHLIST>
0

> <HEROMAP>
0

> <ITNANTIBIOTIC>
0

> <KEMIMARKET>
0

> <MASSBANKREF>
0

> <MASSBANKEUSP>
0

> <NEMILIST>
0

> <NATADB>
0

> <NIOSHIDLH>
0

> <NIOSHICSC>
0

> <NIOSHNPG>
0

> <NIOSHSKIN>
0

> <NORMANCT15>
0

> <SFISHFLUORO>
0

> <NORMANPRI>
0

> <NORMANEWS>
0

> <PFASTRIER>
0

> <SWISSPHARMA>
0

> <PPRTVWEB>
0

> <STOCKHOLM>
0

> <STOFFIDENT>
0

> <SCDM>
0

> <EAWAGSURF>
0

> <SWISSPEST>
0

> <TOX21SL>
0

> <TOXCAST>
0

> <TOXCAST_E1K>
0

> <TOXCAST_PH1V2>
0

> <TOXCAST_PH2>
0

> <TOXCAST_PH3>
0

> <TOXCAST_PHASEI>
0

> <TOXCAST_PHASEII>
0

> <TOXCAST_PHASEIII>
0

> <TRIRELEASE>
0

> <TSCASURF>
0

> <UJIBADE>
0

> <ATHENSSUS>
0

> <UATHTARGETS>
0

$$$$

  Mrv1611108211713492D          

  0  0  0     0  0            999 V3000
M  V30 BEGIN CTAB
M  V30 COUNTS 12 13 0 0 0
M  V30 BEGIN ATOM
M  V30 1 N 5.3343 -2.0521 0 0
M  V30 2 C 4.0583 -2.9401 0 0
M  V30 3 C 2.6507 -2.3152 0 0
M  V30 4 N 1.3352 0 0 0
M  V30 5 C 2.6507 -0.7762 0 0
M  V30 6 C 6.5774 -2.927 0 0
M  V30 7 C 5.3343 -0.4801 0 0
M  V30 8 C 4.5581 -4.4069 0 0
M  V30 9 C 6.1301 -4.4069 0 0
M  V30 10 C 1.3352 -3.0717 0 0
M  V30 11 C 0 -0.7565 0 0
M  V30 12 C 0 -2.3152 0 0
M  V30 END ATOM
M  V30 BEGIN BOND
M  V30 1 1 1 2
M  V30 2 1 1 6
M  V30 3 1 1 7
M  V30 4 1 2 3
M  V30 5 1 2 8
M  V30 6 2 3 5
M  V30 7 1 3 10
M  V30 8 1 4 5
M  V30 9 2 4 11
M  V30 10 1 6 9
M  V30 11 1 8 9
M  V30 12 2 10 12
M  V30 13 1 11 12
M  V30 END BOND
M  V30 END CTAB
M  END

> <INPUT>
C10H14N2

> <FOUND_BY>
MS Ready Formula

> <DTXCID_INDIVIDUAL_COMPONENT>
DTXCID9028128

> <FORMULA_INDIVIDUAL_COMPONENT>
C10H14N2

> <SMILES_INDIVIDUAL_COMPONENT>
CN1CCCC1C1=CN=CC=C1

> <MAPPED_DTXSID>
DTXSID80746757

> <PREFERRED_NAME_DTXSID>
3-[(2S)-1-Methylpyrrolidin-2-yl](~2~H_4_)pyridine

> <CASRN_DTXSID>
284685-07-0

> <FORMULA_MAPPED_DTXSID>
C10H10D4N2

> <SMILES_MAPPED_DTXSID>
[2H]C1=NC([2H])=C([C@@H]2CCCN2C)C([2H])=C1[2H]

> <MS_READY_SMILES>
-

> <INCHI_STRING_DTXCID>
InChI=1S/C10H14N2/c1-12-7-3-5-10(12)9-4-2-6-11-8-9/h2,4,6,8,10H,3,5,7H2,1H3

> <INCHIKEY_DTXCID>
SNICXCGAKADSCV-UHFFFAOYSA-N

> <MONOISOTOPIC_MASS_DTXCID>
162.115698459

> <EXPOCAST_MEDIAN_EXPOSURE_PREDICTION_MG/KG-BW/DAY>
-

> <EXPOCAST>
0

> <NHANES>
0

> <DATA_SOURCES>
1

> <TOXVAL_DATA>
0

> <TOXCAST_PERCENT_ACTIVE>
-

> <TOXCAST_NUMBER_OF_ASSAYS/TOTAL>
-

> <NUMBER_OF_PUBMED_ARTICLES>
-

> <PUBCHEM_DATA_SOURCES>
5

> <CPDAT_COUNT>
-

> <ATMOSPHERIC_HYDROXYLATION_RATE_(AOH)_CM3/MOLECULE*SEC_OPERA_PRED>
4.3164e-11

> <BIOCONCENTRATION_FACTOR_OPERA_PRED>
6.524

> <BIODEGRADATION_HALF_LIFE_DAYS_DAYS_OPERA_PRED>
3.36018

> <BOILING_POINT_DEGC_OPERA_PRED>
253.418

> <HENRYS_LAW_ATM-M3/MOLE_OPERA_PRED>
6.65993e-06

> <OPERA_KM_DAYS_OPERA_PRED>
5.93649

> <OCTANOL_AIR_PARTITION_COEFF_LOGKOA_OPERA_PRED>
5.80576

> <SOIL_ADSORPTION_COEFFICIENT_KOC_L/KG_OPERA_PRED>
110.746

> <OCTANOL_WATER_PARTITION_LOGP_OPERA_PRED>
1.17766

> <MELTING_POINT_DEGC_OPERA_PRED>
-34.4392

> <VAPOR_PRESSURE_MMHG_OPERA_PRED>
0.013088

> <WATER_SOLUBILITY_MOL/L_OPERA_PRED>
4.51047

> <TEST_BCF_TEST_PRED>
11.995

> <BOILING_POINT_DEGC_TEST_PRED>
244.899

> <DENSITY_G/CM^3_TEST_PRED>
1.03

> <FLASH_POINT_DEGC_TEST_PRED>
95.541

> <MELTING_POINT_DEGC_TEST_PRED>
18.147

> <SURFACE_TENSION_DYN/CM_TEST_PRED>
36.302

> <THERMAL_CONDUCTIVITY_MW/(M*K)_TEST_PRED>
143.221

> <VISCOSITY_CP_CP_TEST_PRED>
7.2778

> <VAPOR_PRESSURE_MMHG_TEST_PRED>
0.00436516

> <WATER_SOLUBILITY_MOL/L_TEST_PRED>
0.0799834

> <AEGLVALUES>
0

> <ALGALTOX>
0

> <ARCHEMICALS>
0

> <ATSDRLST>
0

> <BISPHENOLS>
0

> <OEHHA>
0

> <CERAPP>
0

> <FUNNAMES>
0

> <KWRSJERPS>
0

> <EPACONS>
0

> <IRIS>
0

> <EPAHFR>
0

> <EUCOSMETICS>
0

> <FRENCHLIST>
0

> <HEROMAP>
0

> <ITNANTIBIOTIC>
0

> <KEMIMARKET>
0

> <MASSBANKREF>
0

> <MASSBANKEUSP>
0

> <NEMILIST>
0

> <NATADB>
0

> <NIOSHIDLH>
0

> <NIOSHICSC>
0

> <NIOSHNPG>
0

> <NIOSHSKIN>
0

> <NORMANCT15>
0

> <SFISHFLUORO>
0

> <NORMANPRI>
0

> <NORMANEWS>
0

> <PFASTRIER>
0

> <SWISSPHARMA>
0

> <PPRTVWEB>
0

> <STOCKHOLM>
0

> <STOFFIDENT>
0

> <SCDM>
0

> <EAWAGSURF>
0

> <SWISSPEST>
0

> <TOX21SL>
0

> <TOXCAST>
0

> <TOXCAST_E1K>
0

> <TOXCAST_PH1V2>
0

> <TOXCAST_PH2>
0

> <TOXCAST_PH3>
0

> <TOXCAST_PHASEI>
0

> <TOXCAST_PHASEII>
0

> <TOXCAST_PHASEIII>
0

> <TRIRELEASE>
0

> <TSCASURF>
0

> <UJIBADE>
0

> <ATHENSSUS>
0

> <UATHTARGETS>
0

$$$$

  Mrv1533009301517222D          

  0  0  0     0  0            999 V3000
M  V30 BEGIN CTAB
M  V30 COUNTS 12 12 0 0 0
M  V30 BEGIN ATOM
M  V30 1 C 2.6694 -2.3147 0 0
M  V30 2 N 1.3347 -1.54 0 0
M  V30 3 N 4.0041 -1.54 0 0
M  V30 4 C 7.9987 -2.3147 0 0
M  V30 5 C 7.9987 -3.8547 0 0
M  V30 6 C 6.6641 -4.6201 0 0
M  V30 7 C 5.3294 -3.8547 0 0
M  V30 8 C 5.3294 -2.3147 0 0
M  V30 9 C 6.6641 -1.54 0 0
M  V30 10 C 6.6641 0 0 0
M  V30 11 C 9.3335 -4.6201 0 0
M  V30 12 C 0 -2.3147 0 0
M  V30 END ATOM
M  V30 BEGIN BOND
M  V30 1 2 1 3 CFG=2
M  V30 2 1 1 2
M  V30 3 1 2 12
M  V30 4 1 3 8
M  V30 5 2 4 9
M  V30 6 1 4 5
M  V30 7 2 5 6
M  V30 8 1 5 11
M  V30 9 1 6 7
M  V30 10 2 7 8
M  V30 11 1 8 9
M  V30 12 1 9 10
M  V30 END BOND
M  V30 END CTAB
M  END

> <INPUT>
C10H14N2

> <FOUND_BY>
MS Ready Formula

> <DTXCID_INDIVIDUAL_COMPONENT>
DTXCID9017696

> <FORMULA_INDIVIDUAL_COMPONENT>
C10H14N2

> <SMILES_INDIVIDUAL_COMPONENT>
CNC=NC1=CC=C(C)C=C1C

> <MAPPED_DTXSID>
DTXSID30746868

> <PREFERRED_NAME_DTXSID>
N-(2,4-Dimethylphenyl)-N'-(~2~H_3_)methylmethanimidamide

> <CASRN_DTXSID>
1255517-75-9

> <FORMULA_MAPPED_DTXSID>
C10H11D3N2

> <SMILES_MAPPED_DTXSID>
[2H]C([2H])([2H])\N=C\NC1=C(C)C=C(C)C=C1

> <MS_READY_SMILES>
-

> <INCHI_STRING_DTXCID>
InChI=1S/C10H14N2/c1-8-4-5-10(9(2)6-8)12-7-11-3/h4-7H,1-3H3,(H,11,12)

> <INCHIKEY_DTXCID>
JIIOLEGNERQDIP-UHFFFAOYSA-N

> <MONOISOTOPIC_MASS_DTXCID>
162.115698459

> <EXPOCAST_MEDIAN_EXPOSURE_PREDICTION_MG/KG-BW/DAY>
-

> <EXPOCAST>
0

> <NHANES>
0

> <DATA_SOURCES>
1

> <TOXVAL_DATA>
0

> <TOXCAST_PERCENT_ACTIVE>
-

> <TOXCAST_NUMBER_OF_ASSAYS/TOTAL>
-

> <NUMBER_OF_PUBMED_ARTICLES>
-

> <PUBCHEM_DATA_SOURCES>
3

> <CPDAT_COUNT>
-

> <ATMOSPHERIC_HYDROXYLATION_RATE_(AOH)_CM3/MOLECULE*SEC_OPERA_PRED>
2.51142e-11

> <BIOCONCENTRATION_FACTOR_OPERA_PRED>
4.51195

> <BIODEGRADATION_HALF_LIFE_DAYS_DAYS_OPERA_PRED>
3.52507

> <BOILING_POINT_DEGC_OPERA_PRED>
279.917

> <HENRYS_LAW_ATM-M3/MOLE_OPERA_PRED>
2.71394e-07

> <OPERA_KM_DAYS_OPERA_PRED>
0.414568

> <OCTANOL_AIR_PARTITION_COEFF_LOGKOA_OPERA_PRED>
7.56732

> <SOIL_ADSORPTION_COEFFICIENT_KOC_L/KG_OPERA_PRED>
82.3925

> <OCTANOL_WATER_PARTITION_LOGP_OPERA_PRED>
1.40619

> <MELTING_POINT_DEGC_OPERA_PRED>
66.5001

> <VAPOR_PRESSURE_MMHG_OPERA_PRED>
0.00894703

> <WATER_SOLUBILITY_MOL/L_OPERA_PRED>
0.0038188

> <TEST_BCF_TEST_PRED>
13.5519

> <BOILING_POINT_DEGC_TEST_PRED>
-

> <DENSITY_G/CM^3_TEST_PRED>
1.159

> <FLASH_POINT_DEGC_TEST_PRED>
126.256

> <MELTING_POINT_DEGC_TEST_PRED>
122.298

> <SURFACE_TENSION_DYN/CM_TEST_PRED>
-

> <THERMAL_CONDUCTIVITY_MW/(M*K)_TEST_PRED>
-

> <VISCOSITY_CP_CP_TEST_PRED>
-

> <VAPOR_PRESSURE_MMHG_TEST_PRED>
-

> <WATER_SOLUBILITY_MOL/L_TEST_PRED>
0.00268534

> <AEGLVALUES>
0

> <ALGALTOX>
0

> <ARCHEMICALS>
0

> <ATSDRLST>
0

> <BISPHENOLS>
0

> <OEHHA>
0

> <CERAPP>
0

> <FUNNAMES>
0

> <KWRSJERPS>
0

> <EPACONS>
0

> <IRIS>
0

> <EPAHFR>
0

> <EUCOSMETICS>
0

> <FRENCHLIST>
0

> <HEROMAP>
0

> <ITNANTIBIOTIC>
0

> <KEMIMARKET>
0

> <MASSBANKREF>
0

> <MASSBANKEUSP>
0

> <NEMILIST>
0

> <NATADB>
0

> <NIOSHIDLH>
0

> <NIOSHICSC>
0

> <NIOSHNPG>
0

> <NIOSHSKIN>
0

> <NORMANCT15>
0

> <SFISHFLUORO>
0

> <NORMANPRI>
0

> <NORMANEWS>
0

> <PFASTRIER>
0

> <SWISSPHARMA>
0

> <PPRTVWEB>
0

> <STOCKHOLM>
0

> <STOFFIDENT>
0

> <SCDM>
0

> <EAWAGSURF>
0

> <SWISSPEST>
0

> <TOX21SL>
0

> <TOXCAST>
0

> <TOXCAST_E1K>
0

> <TOXCAST_PH1V2>
0

> <TOXCAST_PH2>
0

> <TOXCAST_PH3>
0

> <TOXCAST_PHASEI>
0

> <TOXCAST_PHASEII>
0

> <TOXCAST_PHASEIII>
0

> <TRIRELEASE>
0

> <TSCASURF>
0

> <UJIBADE>
0

> <ATHENSSUS>
0

> <UATHTARGETS>
0

$$$$

  Mrv1533009301520482D          

  0  0  0     0  0            999 V3000
M  V30 BEGIN CTAB
M  V30 COUNTS 12 12 0 0 0
M  V30 BEGIN ATOM
M  V30 1 N 5.7475 0.5313 0 0
M  V30 2 N 7.0812 4.3814 0 0
M  V30 3 C 4.4137 -1.7787 0 0
M  V30 4 C 4.4137 -0.2387 0 0
M  V30 5 C 5.7475 2.0713 0 0
M  V30 6 C 7.0812 2.8414 0 0
M  V30 7 C 3.08 -2.5487 0 0
M  V30 8 C 5.7475 -2.5487 0 0
M  V30 9 C 3.08 0.5313 0 0
M  V30 10 C 3.08 -4.0887 0 0
M  V30 11 C 5.7475 -4.0887 0 0
M  V30 12 C 4.4137 -4.8587 0 0
M  V30 END ATOM
M  V30 BEGIN BOND
M  V30 1 2 1 4
M  V30 2 1 1 5
M  V30 3 1 2 6
M  V30 4 1 3 4
M  V30 5 2 3 7
M  V30 6 1 3 8
M  V30 7 1 4 9
M  V30 8 1 5 6
M  V30 9 1 7 10
M  V30 10 2 8 11
M  V30 11 2 10 12
M  V30 12 1 11 12
M  V30 END BOND
M  V30 END CTAB
M  END

> <INPUT>
C10H14N2

> <FOUND_BY>
MS Ready Formula

> <DTXCID_INDIVIDUAL_COMPONENT>
DTXCID00714877

> <FORMULA_INDIVIDUAL_COMPONENT>
C10H14N2

> <SMILES_INDIVIDUAL_COMPONENT>
C\C(=N/CCN)C1=CC=CC=C1

> <MAPPED_DTXSID>
DTXSID40764134

> <PREFERRED_NAME_DTXSID>
2-[(E)-(1-Phenylethylidene)amino]ethan-1-amine

> <CASRN_DTXSID>
112291-92-6

> <FORMULA_MAPPED_DTXSID>
C10H14N2

> <SMILES_MAPPED_DTXSID>
C\C(=N/CCN)C1=CC=CC=C1

> <MS_READY_SMILES>
CC(=NCCN)C1=CC=CC=C1

> <INCHI_STRING_DTXCID>
InChI=1S/C10H14N2/c1-9(12-8-7-11)10-5-3-2-4-6-10/h2-6H,7-8,11H2,1H3/b12-9+

> <INCHIKEY_DTXCID>
PRTSTKFVEXTIJX-FMIVXFBMSA-N

> <MONOISOTOPIC_MASS_DTXCID>
162.115698459

> <EXPOCAST_MEDIAN_EXPOSURE_PREDICTION_MG/KG-BW/DAY>
-

> <EXPOCAST>
0

> <NHANES>
0

> <DATA_SOURCES>
1

> <TOXVAL_DATA>
0

> <TOXCAST_PERCENT_ACTIVE>
-

> <TOXCAST_NUMBER_OF_ASSAYS/TOTAL>
-

> <NUMBER_OF_PUBMED_ARTICLES>
-

> <PUBCHEM_DATA_SOURCES>
5

> <CPDAT_COUNT>
-

> <ATMOSPHERIC_HYDROXYLATION_RATE_(AOH)_CM3/MOLECULE*SEC_OPERA_PRED>
2.22816e-11

> <BIOCONCENTRATION_FACTOR_OPERA_PRED>
7.4971

> <BIODEGRADATION_HALF_LIFE_DAYS_DAYS_OPERA_PRED>
3.49706

> <BOILING_POINT_DEGC_OPERA_PRED>
279.753

> <HENRYS_LAW_ATM-M3/MOLE_OPERA_PRED>
1.61496e-07

> <OPERA_KM_DAYS_OPERA_PRED>
0.254359

> <OCTANOL_AIR_PARTITION_COEFF_LOGKOA_OPERA_PRED>
7.47708

> <SOIL_ADSORPTION_COEFFICIENT_KOC_L/KG_OPERA_PRED>
121.796

> <OCTANOL_WATER_PARTITION_LOGP_OPERA_PRED>
1.71332

> <MELTING_POINT_DEGC_OPERA_PRED>
96.3472

> <VAPOR_PRESSURE_MMHG_OPERA_PRED>
0.020638

> <WATER_SOLUBILITY_MOL/L_OPERA_PRED>
0.0220037

> <TEST_BCF_TEST_PRED>
10.0462

> <BOILING_POINT_DEGC_TEST_PRED>
200.944

> <DENSITY_G/CM^3_TEST_PRED>
1.075

> <FLASH_POINT_DEGC_TEST_PRED>
121.077

> <MELTING_POINT_DEGC_TEST_PRED>
114.696

> <SURFACE_TENSION_DYN/CM_TEST_PRED>
-

> <THERMAL_CONDUCTIVITY_MW/(M*K)_TEST_PRED>
-

> <VISCOSITY_CP_CP_TEST_PRED>
-

> <VAPOR_PRESSURE_MMHG_TEST_PRED>
0.0212324

> <WATER_SOLUBILITY_MOL/L_TEST_PRED>
0.0176604

> <AEGLVALUES>
0

> <ALGALTOX>
0

> <ARCHEMICALS>
0

> <ATSDRLST>
0

> <BISPHENOLS>
0

> <OEHHA>
0

> <CERAPP>
0

> <FUNNAMES>
0

> <KWRSJERPS>
0

> <EPACONS>
0

> <IRIS>
0

> <EPAHFR>
0

> <EUCOSMETICS>
0

> <FRENCHLIST>
0

> <HEROMAP>
0

> <ITNANTIBIOTIC>
0

> <KEMIMARKET>
0

> <MASSBANKREF>
0

> <MASSBANKEUSP>
0

> <NEMILIST>
0

> <NATADB>
0

> <NIOSHIDLH>
0

> <NIOSHICSC>
0

> <NIOSHNPG>
0

> <NIOSHSKIN>
0

> <NORMANCT15>
0

> <SFISHFLUORO>
0

> <NORMANPRI>
0

> <NORMANEWS>
0

> <PFASTRIER>
0

> <SWISSPHARMA>
0

> <PPRTVWEB>
0

> <STOCKHOLM>
0

> <STOFFIDENT>
0

> <SCDM>
0

> <EAWAGSURF>
0

> <SWISSPEST>
0

> <TOX21SL>
0

> <TOXCAST>
0

> <TOXCAST_E1K>
0

> <TOXCAST_PH1V2>
0

> <TOXCAST_PH2>
0

> <TOXCAST_PH3>
0

> <TOXCAST_PHASEI>
0

> <TOXCAST_PHASEII>
0

> <TOXCAST_PHASEIII>
0

> <TRIRELEASE>
0

> <TSCASURF>
0

> <UJIBADE>
0

> <ATHENSSUS>
0

> <UATHTARGETS>
0

$$$$

  Mrv1533009301520532D          

  0  0  0     0  0            999 V3000
M  V30 BEGIN CTAB
M  V30 COUNTS 12 13 0 0 0
M  V30 BEGIN ATOM
M  V30 1 N 6.8512 0.5408 0 0
M  V30 2 N 5.3566 -3.3008 0 0
M  V30 3 C 6.8512 3.621 0 0
M  V30 4 C 5.5175 2.851 0 0
M  V30 5 C 8.1848 2.851 0 0
M  V30 6 C 5.5175 1.311 0 0
M  V30 7 C 8.1848 1.311 0 0
M  V30 8 C 6.8512 -0.9992 0 0
M  V30 9 C 5.5175 -1.7692 0 0
M  V30 10 C 4.1106 -1.1428 0 0
M  V30 11 C 3.08 -2.2872 0 0
M  V30 12 C 3.85 -3.621 0 0
M  V30 END ATOM
M  V30 BEGIN BOND
M  V30 1 1 1 6
M  V30 2 1 1 7
M  V30 3 1 1 8
M  V30 4 1 2 9
M  V30 5 2 2 12
M  V30 6 1 3 4
M  V30 7 1 3 5
M  V30 8 1 4 6
M  V30 9 1 5 7
M  V30 10 2 8 9 CFG=2
M  V30 11 1 9 10
M  V30 12 2 10 11
M  V30 13 1 11 12
M  V30 END BOND
M  V30 END CTAB
M  END

> <INPUT>
C10H14N2

> <FOUND_BY>
MS Ready Formula

> <DTXCID_INDIVIDUAL_COMPONENT>
DTXCID50728469

> <FORMULA_INDIVIDUAL_COMPONENT>
C10H14N2

> <SMILES_INDIVIDUAL_COMPONENT>
C1CCN(CC1)C=C1C=CC=N1

> <MAPPED_DTXSID>
DTXSID60777726

> <PREFERRED_NAME_DTXSID>
1-[(2H-Pyrrol-2-ylidene)methyl]piperidine

> <CASRN_DTXSID>
19611-56-4

> <FORMULA_MAPPED_DTXSID>
C10H14N2

> <SMILES_MAPPED_DTXSID>
C1CCN(CC1)C=C1C=CC=N1

> <MS_READY_SMILES>
C1CCN(CC1)C=C1C=CC=N1

> <INCHI_STRING_DTXCID>
InChI=1S/C10H14N2/c1-2-7-12(8-3-1)9-10-5-4-6-11-10/h4-6,9H,1-3,7-8H2

> <INCHIKEY_DTXCID>
IRGABYHRDAHSBV-UHFFFAOYSA-N

> <MONOISOTOPIC_MASS_DTXCID>
162.115698459

> <EXPOCAST_MEDIAN_EXPOSURE_PREDICTION_MG/KG-BW/DAY>
-

> <EXPOCAST>
0

> <NHANES>
0

> <DATA_SOURCES>
1

> <TOXVAL_DATA>
0

> <TOXCAST_PERCENT_ACTIVE>
-

> <TOXCAST_NUMBER_OF_ASSAYS/TOTAL>
-

> <NUMBER_OF_PUBMED_ARTICLES>
-

> <PUBCHEM_DATA_SOURCES>
4

> <CPDAT_COUNT>
-

> <ATMOSPHERIC_HYDROXYLATION_RATE_(AOH)_CM3/MOLECULE*SEC_OPERA_PRED>
5.23975e-11

> <BIOCONCENTRATION_FACTOR_OPERA_PRED>
10.1142

> <BIODEGRADATION_HALF_LIFE_DAYS_DAYS_OPERA_PRED>
4.907

> <BOILING_POINT_DEGC_OPERA_PRED>
227.645

> <HENRYS_LAW_ATM-M3/MOLE_OPERA_PRED>
7.77213e-07

> <OPERA_KM_DAYS_OPERA_PRED>
4.5705

> <OCTANOL_AIR_PARTITION_COEFF_LOGKOA_OPERA_PRED>
5.00222

> <SOIL_ADSORPTION_COEFFICIENT_KOC_L/KG_OPERA_PRED>
168.947

> <OCTANOL_WATER_PARTITION_LOGP_OPERA_PRED>
1.56359

> <MELTING_POINT_DEGC_OPERA_PRED>
29.8326

> <VAPOR_PRESSURE_MMHG_OPERA_PRED>
0.00659038

> <WATER_SOLUBILITY_MOL/L_OPERA_PRED>
0.442653

> <TEST_BCF_TEST_PRED>
-

> <BOILING_POINT_DEGC_TEST_PRED>
252.603

> <DENSITY_G/CM^3_TEST_PRED>
1.015

> <FLASH_POINT_DEGC_TEST_PRED>
128.528

> <MELTING_POINT_DEGC_TEST_PRED>
66.126

> <SURFACE_TENSION_DYN/CM_TEST_PRED>
-

> <THERMAL_CONDUCTIVITY_MW/(M*K)_TEST_PRED>
-

> <VISCOSITY_CP_CP_TEST_PRED>
-

> <VAPOR_PRESSURE_MMHG_TEST_PRED>
0.000734514

> <WATER_SOLUBILITY_MOL/L_TEST_PRED>
0.0187068

> <AEGLVALUES>
0

> <ALGALTOX>
0

> <ARCHEMICALS>
0

> <ATSDRLST>
0

> <BISPHENOLS>
0

> <OEHHA>
0

> <CERAPP>
0

> <FUNNAMES>
0

> <KWRSJERPS>
0

> <EPACONS>
0

> <IRIS>
0

> <EPAHFR>
0

> <EUCOSMETICS>
0

> <FRENCHLIST>
0

> <HEROMAP>
0

> <ITNANTIBIOTIC>
0

> <KEMIMARKET>
0

> <MASSBANKREF>
0

> <MASSBANKEUSP>
0

> <NEMILIST>
0

> <NATADB>
0

> <NIOSHIDLH>
0

> <NIOSHICSC>
0

> <NIOSHNPG>
0

> <NIOSHSKIN>
0

> <NORMANCT15>
0

> <SFISHFLUORO>
0

> <NORMANPRI>
0

> <NORMANEWS>
0

> <PFASTRIER>
0

> <SWISSPHARMA>
0

> <PPRTVWEB>
0

> <STOCKHOLM>
0

> <STOFFIDENT>
0

> <SCDM>
0

> <EAWAGSURF>
0

> <SWISSPEST>
0

> <TOX21SL>
0

> <TOXCAST>
0

> <TOXCAST_E1K>
0

> <TOXCAST_PH1V2>
0

> <TOXCAST_PH2>
0

> <TOXCAST_PH3>
0

> <TOXCAST_PHASEI>
0

> <TOXCAST_PHASEII>
0

> <TOXCAST_PHASEIII>
0

> <TRIRELEASE>
0

> <TSCASURF>
0

> <UJIBADE>
0

> <ATHENSSUS>
0

> <UATHTARGETS>
0

$$$$

  Mrv1533009301520552D          

  0  0  0     0  0            999 V3000
M  V30 BEGIN CTAB
M  V30 COUNTS 12 12 0 0 0
M  V30 BEGIN ATOM
M  V30 1 N 5.7475 0.77 0 0
M  V30 2 N 7.0812 3.08 0 0
M  V30 3 C 5.7475 -0.77 0 0
M  V30 4 C 4.4137 -1.54 0 0
M  V30 5 C 7.0812 -1.54 0 0
M  V30 6 C 4.4137 -3.08 0 0
M  V30 7 C 7.0812 -3.08 0 0
M  V30 8 C 5.7475 -3.85 0 0
M  V30 9 C 3.08 -0.77 0 0
M  V30 10 C 8.4149 -0.77 0 0
M  V30 11 C 7.0812 1.54 0 0
M  V30 12 C 8.4149 3.85 0 0
M  V30 END ATOM
M  V30 BEGIN BOND
M  V30 1 1 1 3
M  V30 2 1 1 11
M  V30 3 2 2 11
M  V30 4 1 2 12
M  V30 5 2 3 4
M  V30 6 1 3 5
M  V30 7 1 4 6
M  V30 8 1 4 9
M  V30 9 2 5 7
M  V30 10 1 5 10
M  V30 11 2 6 8
M  V30 12 1 7 8
M  V30 END BOND
M  V30 END CTAB
M  END

> <INPUT>
C10H14N2

> <FOUND_BY>
MS Ready Formula

> <DTXCID_INDIVIDUAL_COMPONENT>
DTXCID10736227

> <FORMULA_INDIVIDUAL_COMPONENT>
C10H14N2

> <SMILES_INDIVIDUAL_COMPONENT>
C\N=C\NC1=C(C)C=CC=C1C

> <MAPPED_DTXSID>
DTXSID80785484

> <PREFERRED_NAME_DTXSID>
N-(2,6-Dimethylphenyl)-N'-methylmethanimidamide

> <CASRN_DTXSID>
42571-94-8

> <FORMULA_MAPPED_DTXSID>
C10H14N2

> <SMILES_MAPPED_DTXSID>
C\N=C\NC1=C(C)C=CC=C1C

> <MS_READY_SMILES>
C\N=C\NC1=C(C)C=CC=C1C

> <INCHI_STRING_DTXCID>
InChI=1S/C10H14N2/c1-8-5-4-6-9(2)10(8)12-7-11-3/h4-7H,1-3H3,(H,11,12)

> <INCHIKEY_DTXCID>
AZSXWIHSJCWLFK-UHFFFAOYSA-N

> <MONOISOTOPIC_MASS_DTXCID>
162.115698459

> <EXPOCAST_MEDIAN_EXPOSURE_PREDICTION_MG/KG-BW/DAY>
-

> <EXPOCAST>
0

> <NHANES>
0

> <DATA_SOURCES>
1

> <TOXVAL_DATA>
0

> <TOXCAST_PERCENT_ACTIVE>
-

> <TOXCAST_NUMBER_OF_ASSAYS/TOTAL>
-

> <NUMBER_OF_PUBMED_ARTICLES>
-

> <PUBCHEM_DATA_SOURCES>
4

> <CPDAT_COUNT>
-

> <ATMOSPHERIC_HYDROXYLATION_RATE_(AOH)_CM3/MOLECULE*SEC_OPERA_PRED>
2.51065e-11

> <BIOCONCENTRATION_FACTOR_OPERA_PRED>
5.58832

> <BIODEGRADATION_HALF_LIFE_DAYS_DAYS_OPERA_PRED>
3.53635

> <BOILING_POINT_DEGC_OPERA_PRED>
279.921

> <HENRYS_LAW_ATM-M3/MOLE_OPERA_PRED>
2.72989e-07

> <OPERA_KM_DAYS_OPERA_PRED>
0.456425

> <OCTANOL_AIR_PARTITION_COEFF_LOGKOA_OPERA_PRED>
7.56732

> <SOIL_ADSORPTION_COEFFICIENT_KOC_L/KG_OPERA_PRED>
80.1792

> <OCTANOL_WATER_PARTITION_LOGP_OPERA_PRED>
1.38189

> <MELTING_POINT_DEGC_OPERA_PRED>
81.3586

> <VAPOR_PRESSURE_MMHG_OPERA_PRED>
0.0171589

> <WATER_SOLUBILITY_MOL/L_OPERA_PRED>
0.00251276

> <TEST_BCF_TEST_PRED>
13.2739

> <BOILING_POINT_DEGC_TEST_PRED>
-

> <DENSITY_G/CM^3_TEST_PRED>
1.17

> <FLASH_POINT_DEGC_TEST_PRED>
126.453

> <MELTING_POINT_DEGC_TEST_PRED>
131.428

> <SURFACE_TENSION_DYN/CM_TEST_PRED>
-

> <THERMAL_CONDUCTIVITY_MW/(M*K)_TEST_PRED>
-

> <VISCOSITY_CP_CP_TEST_PRED>
-

> <VAPOR_PRESSURE_MMHG_TEST_PRED>
-

> <WATER_SOLUBILITY_MOL/L_TEST_PRED>
0.00273527

> <AEGLVALUES>
0

> <ALGALTOX>
0

> <ARCHEMICALS>
0

> <ATSDRLST>
0

> <BISPHENOLS>
0

> <OEHHA>
0

> <CERAPP>
0

> <FUNNAMES>
0

> <KWRSJERPS>
0

> <EPACONS>
0

> <IRIS>
0

> <EPAHFR>
0

> <EUCOSMETICS>
0

> <FRENCHLIST>
0

> <HEROMAP>
0

> <ITNANTIBIOTIC>
0

> <KEMIMARKET>
0

> <MASSBANKREF>
0

> <MASSBANKEUSP>
0

> <NEMILIST>
0

> <NATADB>
0

> <NIOSHIDLH>
0

> <NIOSHICSC>
0

> <NIOSHNPG>
0

> <NIOSHSKIN>
0

> <NORMANCT15>
0

> <SFISHFLUORO>
0

> <NORMANPRI>
0

> <NORMANEWS>
0

> <PFASTRIER>
0

> <SWISSPHARMA>
0

> <PPRTVWEB>
0

> <STOCKHOLM>
0

> <STOFFIDENT>
0

> <SCDM>
0

> <EAWAGSURF>
0

> <SWISSPEST>
0

> <TOX21SL>
0

> <TOXCAST>
0

> <TOXCAST_E1K>
0

> <TOXCAST_PH1V2>
0

> <TOXCAST_PH2>
0

> <TOXCAST_PH3>
0

> <TOXCAST_PHASEI>
0

> <TOXCAST_PHASEII>
0

> <TOXCAST_PHASEIII>
0

> <TRIRELEASE>
0

> <TSCASURF>
0

> <UJIBADE>
0

> <ATHENSSUS>
0

> <UATHTARGETS>
0

$$$$
782230
  Mrv1611109301617072D          

  0  0  0     0  0            999 V3000
M  V30 BEGIN CTAB
M  V30 COUNTS 12 12 0 0 0
M  V30 BEGIN ATOM
M  V30 1 N 3.6028 -2.2927 0 0
M  V30 2 C 3.6028 -0.7527 0 0
M  V30 3 C 4.8487 -3.1979 0 0
M  V30 4 C 4.3728 -4.6626 0 0
M  V30 5 C 2.8327 -4.6626 0 0
M  V30 6 C 2.3568 -3.1979 0 0
M  V30 7 C 0.8922 -2.722 0 0
M  V30 8 C -0.2522 -3.7526 0 0
M  V30 9 N 0.572 -1.2156 0 0
M  V30 10 C -0.8926 -0.7398 0 0
M  V30 11 C -1.2128 0.7666 0 0
M  V30 12 C -2.6774 1.2425 0 0
M  V30 END ATOM
M  V30 BEGIN BOND
M  V30 1 1 1 2
M  V30 2 1 1 3
M  V30 3 2 3 4
M  V30 4 1 4 5
M  V30 5 2 5 6
M  V30 6 1 6 1
M  V30 7 1 6 7
M  V30 8 1 7 8
M  V30 9 2 7 9
M  V30 10 1 9 10
M  V30 11 2 10 11
M  V30 12 1 11 12
M  V30 END BOND
M  V30 END CTAB
M  END

> <INPUT>
C10H14N2

> <FOUND_BY>
MS Ready Formula

> <DTXCID_INDIVIDUAL_COMPONENT>
DTXCID90934300

> <FORMULA_INDIVIDUAL_COMPONENT>
C10H14N2

> <SMILES_INDIVIDUAL_COMPONENT>
C\C=C\N=C(/C)C1=CC=CN1C

> <MAPPED_DTXSID>
DTXSID10831488

> <PREFERRED_NAME_DTXSID>
(1E)-1-(1-Methyl-1H-pyrrol-2-yl)-N-(prop-1-en-1-yl)ethan-1-imine

> <CASRN_DTXSID>
87870-11-9

> <FORMULA_MAPPED_DTXSID>
C10H14N2

> <SMILES_MAPPED_DTXSID>
CC=C\N=C(/C)C1=CC=CN1C

> <MS_READY_SMILES>
CC=CN=C(C)C1=CC=CN1C

> <INCHI_STRING_DTXCID>
InChI=1S/C10H14N2/c1-4-7-11-9(2)10-6-5-8-12(10)3/h4-8H,1-3H3/b7-4+,11-9+

> <INCHIKEY_DTXCID>
WAZMXRUQKIFJTO-WUZDHUPESA-N

> <MONOISOTOPIC_MASS_DTXCID>
162.115698459

> <EXPOCAST_MEDIAN_EXPOSURE_PREDICTION_MG/KG-BW/DAY>
-

> <EXPOCAST>
0

> <NHANES>
0

> <DATA_SOURCES>
1

> <TOXVAL_DATA>
0

> <TOXCAST_PERCENT_ACTIVE>
-

> <TOXCAST_NUMBER_OF_ASSAYS/TOTAL>
-

> <NUMBER_OF_PUBMED_ARTICLES>
-

> <PUBCHEM_DATA_SOURCES>
3

> <CPDAT_COUNT>
-

> <ATMOSPHERIC_HYDROXYLATION_RATE_(AOH)_CM3/MOLECULE*SEC_OPERA_PRED>
3.73968e-11

> <BIOCONCENTRATION_FACTOR_OPERA_PRED>
8.67177

> <BIODEGRADATION_HALF_LIFE_DAYS_DAYS_OPERA_PRED>
4.2774

> <BOILING_POINT_DEGC_OPERA_PRED>
227.089

> <HENRYS_LAW_ATM-M3/MOLE_OPERA_PRED>
0.000176164

> <OPERA_KM_DAYS_OPERA_PRED>
2.61114

> <OCTANOL_AIR_PARTITION_COEFF_LOGKOA_OPERA_PRED>
5.00907

> <SOIL_ADSORPTION_COEFFICIENT_KOC_L/KG_OPERA_PRED>
62.9839

> <OCTANOL_WATER_PARTITION_LOGP_OPERA_PRED>
2.01872

> <MELTING_POINT_DEGC_OPERA_PRED>
57.586

> <VAPOR_PRESSURE_MMHG_OPERA_PRED>
0.0142535

> <WATER_SOLUBILITY_MOL/L_OPERA_PRED>
1.92117

> <TEST_BCF_TEST_PRED>
31.842

> <BOILING_POINT_DEGC_TEST_PRED>
218.281

> <DENSITY_G/CM^3_TEST_PRED>
0.968

> <FLASH_POINT_DEGC_TEST_PRED>
96.491

> <MELTING_POINT_DEGC_TEST_PRED>
40.164

> <SURFACE_TENSION_DYN/CM_TEST_PRED>
30.165

> <THERMAL_CONDUCTIVITY_MW/(M*K)_TEST_PRED>
-

> <VISCOSITY_CP_CP_TEST_PRED>
-

> <VAPOR_PRESSURE_MMHG_TEST_PRED>
0.00877001

> <WATER_SOLUBILITY_MOL/L_TEST_PRED>
0.0149968

> <AEGLVALUES>
0

> <ALGALTOX>
0

> <ARCHEMICALS>
0

> <ATSDRLST>
0

> <BISPHENOLS>
0

> <OEHHA>
0

> <CERAPP>
0

> <FUNNAMES>
0

> <KWRSJERPS>
0

> <EPACONS>
0

> <IRIS>
0

> <EPAHFR>
0

> <EUCOSMETICS>
0

> <FRENCHLIST>
0

> <HEROMAP>
0

> <ITNANTIBIOTIC>
0

> <KEMIMARKET>
0

> <MASSBANKREF>
0

> <MASSBANKEUSP>
0

> <NEMILIST>
0

> <NATADB>
0

> <NIOSHIDLH>
0

> <NIOSHICSC>
0

> <NIOSHNPG>
0

> <NIOSHSKIN>
0

> <NORMANCT15>
0

> <SFISHFLUORO>
0

> <NORMANPRI>
0

> <NORMANEWS>
0

> <PFASTRIER>
0

> <SWISSPHARMA>
0

> <PPRTVWEB>
0

> <STOCKHOLM>
0

> <STOFFIDENT>
0

> <SCDM>
0

> <EAWAGSURF>
0

> <SWISSPEST>
0

> <TOX21SL>
0

> <TOXCAST>
0

> <TOXCAST_E1K>
0

> <TOXCAST_PH1V2>
0

> <TOXCAST_PH2>
0

> <TOXCAST_PH3>
0

> <TOXCAST_PHASEI>
0

> <TOXCAST_PHASEII>
0

> <TOXCAST_PHASEIII>
0

> <TRIRELEASE>
0

> <TSCASURF>
0

> <UJIBADE>
0

> <ATHENSSUS>
0

> <UATHTARGETS>
0

$$$$
786017
  Mrv1611109301617152D          

  0  0  0     0  0            999 V3000
M  V30 BEGIN CTAB
M  V30 COUNTS 12 11 0 0 0
M  V30 BEGIN ATOM
M  V30 1 N 3.1887 -1.5231 0 0
M  V30 2 C 1.6487 -1.5231 0 0
M  V30 3 C 0.1087 -1.5231 0 0
M  V30 4 C 0.1087 0.0169 0 0
M  V30 5 N 0.1087 1.5569 0 0
M  V30 6 C 0.1087 -3.0631 0 0
M  V30 7 C -1.4313 -1.5231 0 0
M  V30 8 C -2.2013 -2.8567 0 0
M  V30 9 C -3.7413 -2.8567 0 0
M  V30 10 C -4.5113 -4.1904 0 0
M  V30 11 C -2.2013 -0.1894 0 0
M  V30 12 C -3.7413 -0.1894 0 0
M  V30 END ATOM
M  V30 BEGIN BOND
M  V30 1 3 1 2
M  V30 2 1 2 3
M  V30 3 1 3 4
M  V30 4 3 4 5
M  V30 5 1 3 6
M  V30 6 1 3 7
M  V30 7 1 7 8
M  V30 8 2 8 9
M  V30 9 1 9 10
M  V30 10 1 7 11
M  V30 11 1 11 12
M  V30 END BOND
M  V30 END CTAB
M  END

> <INPUT>
C10H14N2

> <FOUND_BY>
MS Ready Formula

> <DTXCID_INDIVIDUAL_COMPONENT>
DTXCID00936259

> <FORMULA_INDIVIDUAL_COMPONENT>
C10H14N2

> <SMILES_INDIVIDUAL_COMPONENT>
CCC(\C=C\C)C(C)(C#N)C#N

> <MAPPED_DTXSID>
DTXSID20835275

> <PREFERRED_NAME_DTXSID>
(Hex-4-en-3-yl)(methyl)propanedinitrile

> <CASRN_DTXSID>
832720-98-6

> <FORMULA_MAPPED_DTXSID>
C10H14N2

> <SMILES_MAPPED_DTXSID>
CCC(C=CC)C(C)(C#N)C#N

> <MS_READY_SMILES>
CCC(C=CC)C(C)(C#N)C#N

> <INCHI_STRING_DTXCID>
InChI=1S/C10H14N2/c1-4-6-9(5-2)10(3,7-11)8-12/h4,6,9H,5H2,1-3H3/b6-4+

> <INCHIKEY_DTXCID>
UYKRDMUGDMHBDE-GQCTYLIASA-N

> <MONOISOTOPIC_MASS_DTXCID>
162.115698459

> <EXPOCAST_MEDIAN_EXPOSURE_PREDICTION_MG/KG-BW/DAY>
-

> <EXPOCAST>
0

> <NHANES>
0

> <DATA_SOURCES>
1

> <TOXVAL_DATA>
0

> <TOXCAST_PERCENT_ACTIVE>
-

> <TOXCAST_NUMBER_OF_ASSAYS/TOTAL>
-

> <NUMBER_OF_PUBMED_ARTICLES>
-

> <PUBCHEM_DATA_SOURCES>
4

> <CPDAT_COUNT>
-

> <ATMOSPHERIC_HYDROXYLATION_RATE_(AOH)_CM3/MOLECULE*SEC_OPERA_PRED>
5.69318e-11

> <BIOCONCENTRATION_FACTOR_OPERA_PRED>
31.7201

> <BIODEGRADATION_HALF_LIFE_DAYS_DAYS_OPERA_PRED>
3.5318

> <BOILING_POINT_DEGC_OPERA_PRED>
282.808

> <HENRYS_LAW_ATM-M3/MOLE_OPERA_PRED>
5.37418e-07

> <OPERA_KM_DAYS_OPERA_PRED>
0.32417

> <OCTANOL_AIR_PARTITION_COEFF_LOGKOA_OPERA_PRED>
5.08973

> <SOIL_ADSORPTION_COEFFICIENT_KOC_L/KG_OPERA_PRED>
52.3797

> <OCTANOL_WATER_PARTITION_LOGP_OPERA_PRED>
1.40798

> <MELTING_POINT_DEGC_OPERA_PRED>
26.8365

> <VAPOR_PRESSURE_MMHG_OPERA_PRED>
0.0261103

> <WATER_SOLUBILITY_MOL/L_OPERA_PRED>
0.00286979

> <TEST_BCF_TEST_PRED>
37.2392

> <BOILING_POINT_DEGC_TEST_PRED>
267.105

> <DENSITY_G/CM^3_TEST_PRED>
0.923

> <FLASH_POINT_DEGC_TEST_PRED>
117.558

> <MELTING_POINT_DEGC_TEST_PRED>
21.745

> <SURFACE_TENSION_DYN/CM_TEST_PRED>
35.267

> <THERMAL_CONDUCTIVITY_MW/(M*K)_TEST_PRED>
-

> <VISCOSITY_CP_CP_TEST_PRED>
1.46893

> <VAPOR_PRESSURE_MMHG_TEST_PRED>
0.0189671

> <WATER_SOLUBILITY_MOL/L_TEST_PRED>
0.0215774

> <AEGLVALUES>
0

> <ALGALTOX>
0

> <ARCHEMICALS>
0

> <ATSDRLST>
0

> <BISPHENOLS>
0

> <OEHHA>
0

> <CERAPP>
0

> <FUNNAMES>
0

> <KWRSJERPS>
0

> <EPACONS>
0

> <IRIS>
0

> <EPAHFR>
0

> <EUCOSMETICS>
0

> <FRENCHLIST>
0

> <HEROMAP>
0

> <ITNANTIBIOTIC>
0

> <KEMIMARKET>
0

> <MASSBANKREF>
0

> <MASSBANKEUSP>
0

> <NEMILIST>
0

> <NATADB>
0

> <NIOSHIDLH>
0

> <NIOSHICSC>
0

> <NIOSHNPG>
0

> <NIOSHSKIN>
0

> <NORMANCT15>
0

> <SFISHFLUORO>
0

> <NORMANPRI>
0

> <NORMANEWS>
0

> <PFASTRIER>
0

> <SWISSPHARMA>
0

> <PPRTVWEB>
0

> <STOCKHOLM>
0

> <STOFFIDENT>
0

> <SCDM>
0

> <EAWAGSURF>
0

> <SWISSPEST>
0

> <TOX21SL>
0

> <TOXCAST>
0

> <TOXCAST_E1K>
0

> <TOXCAST_PH1V2>
0

> <TOXCAST_PH2>
0

> <TOXCAST_PH3>
0

> <TOXCAST_PHASEI>
0

> <TOXCAST_PHASEII>
0

> <TOXCAST_PHASEIII>
0

> <TRIRELEASE>
0

> <TSCASURF>
0

> <UJIBADE>
0

> <ATHENSSUS>
0

> <UATHTARGETS>
0

$$$$
185782
  Mrv1611103081716072D          

  0  0  0     0  0            999 V3000
M  V30 BEGIN CTAB
M  V30 COUNTS 12 13 0 0 0
M  V30 BEGIN ATOM
M  V30 1 N -1.0703 -2.2636 0 0
M  V30 2 C 0.2634 -1.4936 0 0
M  V30 3 C 0.2634 0.0464 0 0
M  V30 4 C -1.0703 0.8164 0 0
M  V30 5 C -1.0703 2.3564 0 0
M  V30 6 C 0.2634 3.1264 0 0
M  V30 7 N 1.597 2.3564 0 0
M  V30 8 C 1.597 0.8164 0 0
M  V30 9 C 1.597 -2.2636 0 0
M  V30 10 C 1.597 -3.8036 0 0
M  V30 11 C 0.2634 -4.5736 0 0
M  V30 12 C -1.0703 -3.8036 0 0
M  V30 END ATOM
M  V30 BEGIN BOND
M  V30 1 1 1 2
M  V30 2 1 2 3
M  V30 3 2 3 4
M  V30 4 1 4 5
M  V30 5 2 5 6
M  V30 6 1 6 7
M  V30 7 2 7 8
M  V30 8 1 8 3
M  V30 9 1 2 9
M  V30 10 1 9 10
M  V30 11 1 10 11
M  V30 12 1 11 12
M  V30 13 1 12 1
M  V30 END BOND
M  V30 END CTAB
M  END

> <INPUT>
C10H14N2

> <FOUND_BY>
MS Ready Formula

> <DTXCID_INDIVIDUAL_COMPONENT>
DTXCID50202491

> <FORMULA_INDIVIDUAL_COMPONENT>
C10H14N2

> <SMILES_INDIVIDUAL_COMPONENT>
C1CCC(NC1)C1=CC=CN=C1

> <MAPPED_DTXSID>
DTXSID40852303

> <PREFERRED_NAME_DTXSID>
Nitric acid--3-[(2S)-piperidin-2-yl]pyridine (1/1)

> <CASRN_DTXSID>
585564-76-7

> <FORMULA_MAPPED_DTXSID>
C10H15N3O3

> <SMILES_MAPPED_DTXSID>
O[N+]([O-])=O.C1CC[C@H](NC1)C1=CN=CC=C1

> <MS_READY_SMILES>
C1CCC(NC1)C1=CC=CN=C1

> <INCHI_STRING_DTXCID>
InChI=1S/C10H14N2/c1-2-7-12-10(5-1)9-4-3-6-11-8-9/h3-4,6,8,10,12H,1-2,5,7H2

> <INCHIKEY_DTXCID>
MTXSIJUGVMTTMU-UHFFFAOYSA-N

> <MONOISOTOPIC_MASS_DTXCID>
162.115698459

> <EXPOCAST_MEDIAN_EXPOSURE_PREDICTION_MG/KG-BW/DAY>
-

> <EXPOCAST>
0

> <NHANES>
0

> <DATA_SOURCES>
1

> <TOXVAL_DATA>
0

> <TOXCAST_PERCENT_ACTIVE>
-

> <TOXCAST_NUMBER_OF_ASSAYS/TOTAL>
-

> <NUMBER_OF_PUBMED_ARTICLES>
-

> <PUBCHEM_DATA_SOURCES>
3

> <CPDAT_COUNT>
-

> <ATMOSPHERIC_HYDROXYLATION_RATE_(AOH)_CM3/MOLECULE*SEC_OPERA_PRED>
4.36897e-11

> <BIOCONCENTRATION_FACTOR_OPERA_PRED>
8.93408

> <BIODEGRADATION_HALF_LIFE_DAYS_DAYS_OPERA_PRED>
2.77408

> <BOILING_POINT_DEGC_OPERA_PRED>
280.593

> <HENRYS_LAW_ATM-M3/MOLE_OPERA_PRED>
2.85646e-07

> <OPERA_KM_DAYS_OPERA_PRED>
0.501872

> <OCTANOL_AIR_PARTITION_COEFF_LOGKOA_OPERA_PRED>
8.36352

> <SOIL_ADSORPTION_COEFFICIENT_KOC_L/KG_OPERA_PRED>
145.09

> <OCTANOL_WATER_PARTITION_LOGP_OPERA_PRED>
0.909452

> <MELTING_POINT_DEGC_OPERA_PRED>
144.02

> <VAPOR_PRESSURE_MMHG_OPERA_PRED>
0.011755

> <WATER_SOLUBILITY_MOL/L_OPERA_PRED>
1.66388

> <TEST_BCF_TEST_PRED>
8.20352

> <BOILING_POINT_DEGC_TEST_PRED>
267.022

> <DENSITY_G/CM^3_TEST_PRED>
1.036

> <FLASH_POINT_DEGC_TEST_PRED>
110.815

> <MELTING_POINT_DEGC_TEST_PRED>
22.708

> <SURFACE_TENSION_DYN/CM_TEST_PRED>
38.231

> <THERMAL_CONDUCTIVITY_MW/(M*K)_TEST_PRED>
151.208

> <VISCOSITY_CP_CP_TEST_PRED>
12.7644

> <VAPOR_PRESSURE_MMHG_TEST_PRED>
0.00864968

> <WATER_SOLUBILITY_MOL/L_TEST_PRED>
0.055335

> <AEGLVALUES>
0

> <ALGALTOX>
0

> <ARCHEMICALS>
0

> <ATSDRLST>
0

> <BISPHENOLS>
0

> <OEHHA>
0

> <CERAPP>
0

> <FUNNAMES>
0

> <KWRSJERPS>
0

> <EPACONS>
0

> <IRIS>
0

> <EPAHFR>
0

> <EUCOSMETICS>
0

> <FRENCHLIST>
0

> <HEROMAP>
0

> <ITNANTIBIOTIC>
0

> <KEMIMARKET>
0

> <MASSBANKREF>
0

> <MASSBANKEUSP>
0

> <NEMILIST>
0

> <NATADB>
0

> <NIOSHIDLH>
0

> <NIOSHICSC>
0

> <NIOSHNPG>
0

> <NIOSHSKIN>
0

> <NORMANCT15>
0

> <SFISHFLUORO>
0

> <NORMANPRI>
0

> <NORMANEWS>
0

> <PFASTRIER>
0

> <SWISSPHARMA>
0

> <PPRTVWEB>
0

> <STOCKHOLM>
0

> <STOFFIDENT>
0

> <SCDM>
0

> <EAWAGSURF>
0

> <SWISSPEST>
0

> <TOX21SL>
0

> <TOXCAST>
0

> <TOXCAST_E1K>
0

> <TOXCAST_PH1V2>
0

> <TOXCAST_PH2>
0

> <TOXCAST_PH3>
0

> <TOXCAST_PHASEI>
0

> <TOXCAST_PHASEII>
0

> <TOXCAST_PHASEIII>
0

> <TRIRELEASE>
0

> <TSCASURF>
0

> <UJIBADE>
0

> <ATHENSSUS>
0

> <UATHTARGETS>
0

$$$$

  Mrv1533009301521162D          

  0  0  0     0  0            999 V3000
M  V30 BEGIN CTAB
M  V30 COUNTS 12 11 0 0 0
M  V30 BEGIN ATOM
M  V30 1 N 8.4149 3.4651 0 0
M  V30 2 N 7.0812 -3.4651 0 0
M  V30 3 C 9.7485 -0.3851 0 0
M  V30 4 C 5.7475 0.3851 0 0
M  V30 5 C 11.0824 0.3851 0 0
M  V30 6 C 4.4137 -0.3851 0 0
M  V30 7 C 7.0812 -0.3851 0 0
M  V30 8 C 8.4149 0.3851 0 0
M  V30 9 C 3.08 0.3851 0 0
M  V30 10 C 12.4161 -0.3851 0 0
M  V30 11 C 7.0812 -1.9251 0 0
M  V30 12 C 8.4149 1.9251 0 0
M  V30 END ATOM
M  V30 BEGIN BOND
M  V30 1 3 1 12
M  V30 2 3 2 11
M  V30 3 1 3 5
M  V30 4 1 3 8
M  V30 5 1 4 6
M  V30 6 1 4 7
M  V30 7 1 5 10
M  V30 8 1 6 9
M  V30 9 2 7 8 CFG=2
M  V30 10 1 7 11
M  V30 11 1 8 12
M  V30 END BOND
M  V30 END CTAB
M  END

> <INPUT>
C10H14N2

> <FOUND_BY>
MS Ready Formula

> <DTXCID_INDIVIDUAL_COMPONENT>
DTXCID80805919

> <FORMULA_INDIVIDUAL_COMPONENT>
C10H14N2

> <SMILES_INDIVIDUAL_COMPONENT>
CCCC(C#N)=C(CCC)C#N

> <MAPPED_DTXSID>
DTXSID00855178

> <PREFERRED_NAME_DTXSID>
2,3-Dipropylbut-2-enedinitrile

> <CASRN_DTXSID>
217322-20-8

> <FORMULA_MAPPED_DTXSID>
C10H14N2

> <SMILES_MAPPED_DTXSID>
CCCC(C#N)=C(CCC)C#N

> <MS_READY_SMILES>
CCCC(C#N)=C(CCC)C#N

> <INCHI_STRING_DTXCID>
InChI=1S/C10H14N2/c1-3-5-9(7-11)10(8-12)6-4-2/h3-6H2,1-2H3

> <INCHIKEY_DTXCID>
JSWAWCSIOCLTRB-UHFFFAOYSA-N

> <MONOISOTOPIC_MASS_DTXCID>
162.115698459

> <EXPOCAST_MEDIAN_EXPOSURE_PREDICTION_MG/KG-BW/DAY>
-

> <EXPOCAST>
0

> <NHANES>
0

> <DATA_SOURCES>
1

> <TOXVAL_DATA>
0

> <TOXCAST_PERCENT_ACTIVE>
-

> <TOXCAST_NUMBER_OF_ASSAYS/TOTAL>
-

> <NUMBER_OF_PUBMED_ARTICLES>
-

> <PUBCHEM_DATA_SOURCES>
4

> <CPDAT_COUNT>
-

> <ATMOSPHERIC_HYDROXYLATION_RATE_(AOH)_CM3/MOLECULE*SEC_OPERA_PRED>
1.13956e-11

> <BIOCONCENTRATION_FACTOR_OPERA_PRED>
9.43571

> <BIODEGRADATION_HALF_LIFE_DAYS_DAYS_OPERA_PRED>
4.72613

> <BOILING_POINT_DEGC_OPERA_PRED>
285.224

> <HENRYS_LAW_ATM-M3/MOLE_OPERA_PRED>
1.64772e-06

> <OPERA_KM_DAYS_OPERA_PRED>
0.307651

> <OCTANOL_AIR_PARTITION_COEFF_LOGKOA_OPERA_PRED>
5.79717

> <SOIL_ADSORPTION_COEFFICIENT_KOC_L/KG_OPERA_PRED>
73.1896

> <OCTANOL_WATER_PARTITION_LOGP_OPERA_PRED>
0.944348

> <MELTING_POINT_DEGC_OPERA_PRED>
16.0947

> <VAPOR_PRESSURE_MMHG_OPERA_PRED>
0.0206839

> <WATER_SOLUBILITY_MOL/L_OPERA_PRED>
0.0401764

> <TEST_BCF_TEST_PRED>
-

> <BOILING_POINT_DEGC_TEST_PRED>
244.509

> <DENSITY_G/CM^3_TEST_PRED>
1.114

> <FLASH_POINT_DEGC_TEST_PRED>
140.64

> <MELTING_POINT_DEGC_TEST_PRED>
109.105

> <SURFACE_TENSION_DYN/CM_TEST_PRED>
33.26

> <THERMAL_CONDUCTIVITY_MW/(M*K)_TEST_PRED>
-

> <VISCOSITY_CP_CP_TEST_PRED>
-

> <VAPOR_PRESSURE_MMHG_TEST_PRED>
-

> <WATER_SOLUBILITY_MOL/L_TEST_PRED>
0.00141254

> <AEGLVALUES>
0

> <ALGALTOX>
0

> <ARCHEMICALS>
0

> <ATSDRLST>
0

> <BISPHENOLS>
0

> <OEHHA>
0

> <CERAPP>
0

> <FUNNAMES>
0

> <KWRSJERPS>
0

> <EPACONS>
0

> <IRIS>
0

> <EPAHFR>
0

> <EUCOSMETICS>
0

> <FRENCHLIST>
0

> <HEROMAP>
0

> <ITNANTIBIOTIC>
0

> <KEMIMARKET>
0

> <MASSBANKREF>
0

> <MASSBANKEUSP>
0

> <NEMILIST>
0

> <NATADB>
0

> <NIOSHIDLH>
0

> <NIOSHICSC>
0

> <NIOSHNPG>
0

> <NIOSHSKIN>
0

> <NORMANCT15>
0

> <SFISHFLUORO>
0

> <NORMANPRI>
0

> <NORMANEWS>
0

> <PFASTRIER>
0

> <SWISSPHARMA>
0

> <PPRTVWEB>
0

> <STOCKHOLM>
0

> <STOFFIDENT>
0

> <SCDM>
0

> <EAWAGSURF>
0

> <SWISSPEST>
0

> <TOX21SL>
0

> <TOXCAST>
0

> <TOXCAST_E1K>
0

> <TOXCAST_PH1V2>
0

> <TOXCAST_PH2>
0

> <TOXCAST_PH3>
0

> <TOXCAST_PHASEI>
0

> <TOXCAST_PHASEII>
0

> <TOXCAST_PHASEIII>
0

> <TRIRELEASE>
0

> <TSCASURF>
0

> <UJIBADE>
0

> <ATHENSSUS>
0

> <UATHTARGETS>
0

$$$$
806801
  Mrv1611109291619262D          

  0  0  0     0  0            999 V3000
M  V30 BEGIN CTAB
M  V30 COUNTS 12 13 0 0 0
M  V30 BEGIN ATOM
M  V30 1 N 2.5583 -2.041 0 0
M  V30 2 C 1.8901 -3.4285 0 0
M  V30 3 C 0.3887 -3.7711 0 0
M  V30 4 C -0.8153 -2.811 0 0
M  V30 5 C -2.149 -3.581 0 0
M  V30 6 C -3.4826 -2.811 0 0
M  V30 7 C -3.4826 -1.271 0 0
M  V30 8 C -2.149 -0.501 0 0
M  V30 9 C -0.8153 -1.271 0 0
M  V30 10 C 0.3887 -0.3108 0 0
M  V30 11 C 1.8901 -0.6535 0 0
M  V30 12 N 2.8503 0.5505 0 0
M  V30 END ATOM
M  V30 BEGIN BOND
M  V30 1 1 1 2
M  V30 2 1 2 3
M  V30 3 1 3 4
M  V30 4 2 4 5
M  V30 5 1 5 6
M  V30 6 2 6 7
M  V30 7 1 7 8
M  V30 8 2 8 9
M  V30 9 1 9 4
M  V30 10 1 9 10
M  V30 11 1 10 11
M  V30 12 1 11 1
M  V30 13 1 11 12
M  V30 END BOND
M  V30 END CTAB
M  END

> <INPUT>
C10H14N2

> <FOUND_BY>
MS Ready Formula

> <DTXCID_INDIVIDUAL_COMPONENT>
DTXCID10907970

> <FORMULA_INDIVIDUAL_COMPONENT>
C10H14N2

> <SMILES_INDIVIDUAL_COMPONENT>
NC1CC2=CC=CC=C2CCN1

> <MAPPED_DTXSID>
DTXSID60856060

> <PREFERRED_NAME_DTXSID>
2,3,4,5-Tetrahydro-1H-3-benzazepin-2-amine

> <CASRN_DTXSID>
205393-48-2

> <FORMULA_MAPPED_DTXSID>
C10H14N2

> <SMILES_MAPPED_DTXSID>
NC1CC2=CC=CC=C2CCN1

> <MS_READY_SMILES>
NC1CC2=CC=CC=C2CCN1

> <INCHI_STRING_DTXCID>
InChI=1S/C10H14N2/c11-10-7-9-4-2-1-3-8(9)5-6-12-10/h1-4,10,12H,5-7,11H2

> <INCHIKEY_DTXCID>
DZPOFFRXIJFWQT-UHFFFAOYSA-N

> <MONOISOTOPIC_MASS_DTXCID>
162.115698459

> <EXPOCAST_MEDIAN_EXPOSURE_PREDICTION_MG/KG-BW/DAY>
-

> <EXPOCAST>
0

> <NHANES>
0

> <DATA_SOURCES>
1

> <TOXVAL_DATA>
0

> <TOXCAST_PERCENT_ACTIVE>
-

> <TOXCAST_NUMBER_OF_ASSAYS/TOTAL>
-

> <NUMBER_OF_PUBMED_ARTICLES>
-

> <PUBCHEM_DATA_SOURCES>
9

> <CPDAT_COUNT>
-

> <ATMOSPHERIC_HYDROXYLATION_RATE_(AOH)_CM3/MOLECULE*SEC_OPERA_PRED>
1.89641e-11

> <BIOCONCENTRATION_FACTOR_OPERA_PRED>
5.3462

> <BIODEGRADATION_HALF_LIFE_DAYS_DAYS_OPERA_PRED>
3.89704

> <BOILING_POINT_DEGC_OPERA_PRED>
263.056

> <HENRYS_LAW_ATM-M3/MOLE_OPERA_PRED>
6.53297e-08

> <OPERA_KM_DAYS_OPERA_PRED>
0.171269

> <OCTANOL_AIR_PARTITION_COEFF_LOGKOA_OPERA_PRED>
7.93662

> <SOIL_ADSORPTION_COEFFICIENT_KOC_L/KG_OPERA_PRED>
136.616

> <OCTANOL_WATER_PARTITION_LOGP_OPERA_PRED>
0.819898

> <MELTING_POINT_DEGC_OPERA_PRED>
176.719

> <VAPOR_PRESSURE_MMHG_OPERA_PRED>
6.57568e-05

> <WATER_SOLUBILITY_MOL/L_OPERA_PRED>
0.069256

> <TEST_BCF_TEST_PRED>
4.79733

> <BOILING_POINT_DEGC_TEST_PRED>
277.991

> <DENSITY_G/CM^3_TEST_PRED>
1.071

> <FLASH_POINT_DEGC_TEST_PRED>
139.781

> <MELTING_POINT_DEGC_TEST_PRED>
92.642

> <SURFACE_TENSION_DYN/CM_TEST_PRED>
33.427

> <THERMAL_CONDUCTIVITY_MW/(M*K)_TEST_PRED>
180.589

> <VISCOSITY_CP_CP_TEST_PRED>
13.7088

> <VAPOR_PRESSURE_MMHG_TEST_PRED>
0.000201372

> <WATER_SOLUBILITY_MOL/L_TEST_PRED>
0.0137404

> <AEGLVALUES>
0

> <ALGALTOX>
0

> <ARCHEMICALS>
0

> <ATSDRLST>
0

> <BISPHENOLS>
0

> <OEHHA>
0

> <CERAPP>
0

> <FUNNAMES>
0

> <KWRSJERPS>
0

> <EPACONS>
0

> <IRIS>
0

> <EPAHFR>
0

> <EUCOSMETICS>
0

> <FRENCHLIST>
0

> <HEROMAP>
0

> <ITNANTIBIOTIC>
0

> <KEMIMARKET>
0

> <MASSBANKREF>
0

> <MASSBANKEUSP>
0

> <NEMILIST>
0

> <NATADB>
0

> <NIOSHIDLH>
0

> <NIOSHICSC>
0

> <NIOSHNPG>
0

> <NIOSHSKIN>
0

> <NORMANCT15>
0

> <SFISHFLUORO>
0

> <NORMANPRI>
0

> <NORMANEWS>
0

> <PFASTRIER>
0

> <SWISSPHARMA>
0

> <PPRTVWEB>
0

> <STOCKHOLM>
0

> <STOFFIDENT>
0

> <SCDM>
0

> <EAWAGSURF>
0

> <SWISSPEST>
0

> <TOX21SL>
0

> <TOXCAST>
0

> <TOXCAST_E1K>
0

> <TOXCAST_PH1V2>
0

> <TOXCAST_PH2>
0

> <TOXCAST_PH3>
0

> <TOXCAST_PHASEI>
0

> <TOXCAST_PHASEII>
0

> <TOXCAST_PHASEIII>
0

> <TRIRELEASE>
0

> <TSCASURF>
0

> <UJIBADE>
0

> <ATHENSSUS>
0

> <UATHTARGETS>
0

$$$$
807018
  Mrv1611109291619282D          

  0  0  0     0  0            999 V3000
M  V30 BEGIN CTAB
M  V30 COUNTS 12 13 0 0 0
M  V30 BEGIN ATOM
M  V30 1 N 1.2042 -5.172 0 0
M  V30 2 C -0.3358 -5.172 0 0
M  V30 3 C -0.8116 -3.7074 0 0
M  V30 4 C 0.4342 -2.8022 0 0
M  V30 5 C 0.4342 -1.2622 0 0
M  V30 6 C -0.8994 -0.4922 0 0
M  V30 7 C -0.8994 1.0478 0 0
M  V30 8 C 0.4342 1.8178 0 0
M  V30 9 C 1.7679 1.0478 0 0
M  V30 10 N 3.1016 1.8178 0 0
M  V30 11 C 1.7679 -0.4922 0 0
M  V30 12 C 1.6801 -3.7074 0 0
M  V30 END ATOM
M  V30 BEGIN BOND
M  V30 1 1 1 2
M  V30 2 1 2 3
M  V30 3 1 3 4
M  V30 4 1 4 5
M  V30 5 2 5 6
M  V30 6 1 6 7
M  V30 7 2 7 8
M  V30 8 1 8 9
M  V30 9 1 9 10
M  V30 10 2 9 11
M  V30 11 1 11 5
M  V30 12 1 4 12
M  V30 13 1 12 1
M  V30 END BOND
M  V30 END CTAB
M  END

> <INPUT>
C10H14N2

> <FOUND_BY>
MS Ready Formula

> <DTXCID_INDIVIDUAL_COMPONENT>
DTXCID50908062

> <FORMULA_INDIVIDUAL_COMPONENT>
C10H14N2

> <SMILES_INDIVIDUAL_COMPONENT>
NC1=CC(=CC=C1)C1CCNC1

> <MAPPED_DTXSID>
DTXSID10856277

> <PREFERRED_NAME_DTXSID>
3-(Pyrrolidin-3-yl)aniline--hydrogen chloride (1/2)

> <CASRN_DTXSID>
1203681-66-6

> <FORMULA_MAPPED_DTXSID>
C10H16Cl2N2

> <SMILES_MAPPED_DTXSID>
Cl.Cl.NC1=CC=CC(=C1)C1CCNC1

> <MS_READY_SMILES>
NC1=CC(=CC=C1)C1CCNC1

> <INCHI_STRING_DTXCID>
InChI=1S/C10H14N2/c11-10-3-1-2-8(6-10)9-4-5-12-7-9/h1-3,6,9,12H,4-5,7,11H2

> <INCHIKEY_DTXCID>
NCCAHXJXZSQBBE-UHFFFAOYSA-N

> <MONOISOTOPIC_MASS_DTXCID>
162.115698459

> <EXPOCAST_MEDIAN_EXPOSURE_PREDICTION_MG/KG-BW/DAY>
-

> <EXPOCAST>
0

> <NHANES>
0

> <DATA_SOURCES>
1

> <TOXVAL_DATA>
0

> <TOXCAST_PERCENT_ACTIVE>
-

> <TOXCAST_NUMBER_OF_ASSAYS/TOTAL>
-

> <NUMBER_OF_PUBMED_ARTICLES>
-

> <PUBCHEM_DATA_SOURCES>
12

> <CPDAT_COUNT>
-

> <ATMOSPHERIC_HYDROXYLATION_RATE_(AOH)_CM3/MOLECULE*SEC_OPERA_PRED>
2.71207e-11

> <BIOCONCENTRATION_FACTOR_OPERA_PRED>
6.87145

> <BIODEGRADATION_HALF_LIFE_DAYS_DAYS_OPERA_PRED>
3.7847

> <BOILING_POINT_DEGC_OPERA_PRED>
262.812

> <HENRYS_LAW_ATM-M3/MOLE_OPERA_PRED>
1.70498e-10

> <OPERA_KM_DAYS_OPERA_PRED>
0.169929

> <OCTANOL_AIR_PARTITION_COEFF_LOGKOA_OPERA_PRED>
7.94717

> <SOIL_ADSORPTION_COEFFICIENT_KOC_L/KG_OPERA_PRED>
105.356

> <OCTANOL_WATER_PARTITION_LOGP_OPERA_PRED>
1.76669

> <MELTING_POINT_DEGC_OPERA_PRED>
110.309

> <VAPOR_PRESSURE_MMHG_OPERA_PRED>
3.40844e-05

> <WATER_SOLUBILITY_MOL/L_OPERA_PRED>
0.109027

> <TEST_BCF_TEST_PRED>
5.66239

> <BOILING_POINT_DEGC_TEST_PRED>
292.581

> <DENSITY_G/CM^3_TEST_PRED>
1.068

> <FLASH_POINT_DEGC_TEST_PRED>
129.06

> <MELTING_POINT_DEGC_TEST_PRED>
87.605

> <SURFACE_TENSION_DYN/CM_TEST_PRED>
-

> <THERMAL_CONDUCTIVITY_MW/(M*K)_TEST_PRED>
180.19

> <VISCOSITY_CP_CP_TEST_PRED>
15.8489

> <VAPOR_PRESSURE_MMHG_TEST_PRED>
0.00028119

> <WATER_SOLUBILITY_MOL/L_TEST_PRED>
0.0274789

> <AEGLVALUES>
0

> <ALGALTOX>
0

> <ARCHEMICALS>
0

> <ATSDRLST>
0

> <BISPHENOLS>
0

> <OEHHA>
0

> <CERAPP>
0

> <FUNNAMES>
0

> <KWRSJERPS>
0

> <EPACONS>
0

> <IRIS>
0

> <EPAHFR>
0

> <EUCOSMETICS>
0

> <FRENCHLIST>
0

> <HEROMAP>
0

> <ITNANTIBIOTIC>
0

> <KEMIMARKET>
0

> <MASSBANKREF>
0

> <MASSBANKEUSP>
0

> <NEMILIST>
0

> <NATADB>
0

> <NIOSHIDLH>
0

> <NIOSHICSC>
0

> <NIOSHNPG>
0

> <NIOSHSKIN>
0

> <NORMANCT15>
0

> <SFISHFLUORO>
0

> <NORMANPRI>
0

> <NORMANEWS>
0

> <PFASTRIER>
0

> <SWISSPHARMA>
0

> <PPRTVWEB>
0

> <STOCKHOLM>
0

> <STOFFIDENT>
0

> <SCDM>
0

> <EAWAGSURF>
0

> <SWISSPEST>
0

> <TOX21SL>
0

> <TOXCAST>
0

> <TOXCAST_E1K>
0

> <TOXCAST_PH1V2>
0

> <TOXCAST_PH2>
0

> <TOXCAST_PH3>
0

> <TOXCAST_PHASEI>
0

> <TOXCAST_PHASEII>
0

> <TOXCAST_PHASEIII>
0

> <TRIRELEASE>
0

> <TSCASURF>
0

> <UJIBADE>
0

> <ATHENSSUS>
0

> <UATHTARGETS>
0

$$$$

  Mrv1533009301521172D          

  0  0  0     0  0            999 V3000
M  V30 BEGIN CTAB
M  V30 COUNTS 12 13 0 0 1
M  V30 BEGIN ATOM
M  V30 1 N 4.4135 1.2475 0 0
M  V30 2 N 4.4135 -1.8327 0 0
M  V30 3 C 3.08 0.4775 0 0
M  V30 4 C 5.7473 0.4775 0 0
M  V30 5 C 3.08 -1.0625 0 0
M  V30 6 C 5.7473 -1.0625 0 0
M  V30 7 C 7.1241 -1.8861 0 0
M  V30 8 C 7.1241 1.3009 0 0
M  V30 9 C 4.4135 2.7875 0 0
M  V30 10 C 8.5195 -1.0946 0 0
M  V30 11 C 8.5195 0.5094 0 0
M  V30 12 C 9.85 -1.8698 0 0
M  V30 END ATOM
M  V30 BEGIN BOND
M  V30 1 1 1 3
M  V30 2 1 1 4
M  V30 3 1 1 9
M  V30 4 1 2 5
M  V30 5 1 2 6
M  V30 6 1 3 5
M  V30 7 2 4 6
M  V30 8 1 4 8
M  V30 9 1 6 7
M  V30 10 2 7 10
M  V30 11 2 8 11
M  V30 12 1 10 11
M  V30 13 1 10 12
M  V30 END BOND
M  V30 END CTAB
M  END

> <INPUT>
C10H14N2

> <FOUND_BY>
MS Ready Formula

> <DTXCID_INDIVIDUAL_COMPONENT>
DTXCID70807705

> <FORMULA_INDIVIDUAL_COMPONENT>
C10H14N2

> <SMILES_INDIVIDUAL_COMPONENT>
CN1CCNC2=C1C=CC(C)=C2

> <MAPPED_DTXSID>
DTXSID60856964

> <PREFERRED_NAME_DTXSID>
1,6-Dimethyl-1,2,3,4-tetrahydroquinoxaline

> <CASRN_DTXSID>
912284-80-1

> <FORMULA_MAPPED_DTXSID>
C10H14N2

> <SMILES_MAPPED_DTXSID>
CN1CCNC2=C1C=CC(C)=C2

> <MS_READY_SMILES>
CN1CCNC2=C1C=CC(C)=C2

> <INCHI_STRING_DTXCID>
InChI=1S/C10H14N2/c1-8-3-4-10-9(7-8)11-5-6-12(10)2/h3-4,7,11H,5-6H2,1-2H3

> <INCHIKEY_DTXCID>
DMDDKWCMXYOTBQ-UHFFFAOYSA-N

> <MONOISOTOPIC_MASS_DTXCID>
162.115698459

> <EXPOCAST_MEDIAN_EXPOSURE_PREDICTION_MG/KG-BW/DAY>
-

> <EXPOCAST>
0

> <NHANES>
0

> <DATA_SOURCES>
1

> <TOXVAL_DATA>
0

> <TOXCAST_PERCENT_ACTIVE>
-

> <TOXCAST_NUMBER_OF_ASSAYS/TOTAL>
-

> <NUMBER_OF_PUBMED_ARTICLES>
-

> <PUBCHEM_DATA_SOURCES>
10

> <CPDAT_COUNT>
-

> <ATMOSPHERIC_HYDROXYLATION_RATE_(AOH)_CM3/MOLECULE*SEC_OPERA_PRED>
1.85714e-11

> <BIOCONCENTRATION_FACTOR_OPERA_PRED>
5.43906

> <BIODEGRADATION_HALF_LIFE_DAYS_DAYS_OPERA_PRED>
3.36018

> <BOILING_POINT_DEGC_OPERA_PRED>
296.583

> <HENRYS_LAW_ATM-M3/MOLE_OPERA_PRED>
5.05955e-07

> <OPERA_KM_DAYS_OPERA_PRED>
0.448591

> <OCTANOL_AIR_PARTITION_COEFF_LOGKOA_OPERA_PRED>
8.62955

> <SOIL_ADSORPTION_COEFFICIENT_KOC_L/KG_OPERA_PRED>
123.916

> <OCTANOL_WATER_PARTITION_LOGP_OPERA_PRED>
1.91272

> <MELTING_POINT_DEGC_OPERA_PRED>
47.1034

> <VAPOR_PRESSURE_MMHG_OPERA_PRED>
0.00570253

> <WATER_SOLUBILITY_MOL/L_OPERA_PRED>
0.0119934

> <TEST_BCF_TEST_PRED>
15.0314

> <BOILING_POINT_DEGC_TEST_PRED>
275.97

> <DENSITY_G/CM^3_TEST_PRED>
1.026

> <FLASH_POINT_DEGC_TEST_PRED>
111.446

> <MELTING_POINT_DEGC_TEST_PRED>
50.218

> <SURFACE_TENSION_DYN/CM_TEST_PRED>
-

> <THERMAL_CONDUCTIVITY_MW/(M*K)_TEST_PRED>
150.176

> <VISCOSITY_CP_CP_TEST_PRED>
7.06318

> <VAPOR_PRESSURE_MMHG_TEST_PRED>
0.0127938

> <WATER_SOLUBILITY_MOL/L_TEST_PRED>
0.00484172

> <AEGLVALUES>
0

> <ALGALTOX>
0

> <ARCHEMICALS>
0

> <ATSDRLST>
0

> <BISPHENOLS>
0

> <OEHHA>
0

> <CERAPP>
0

> <FUNNAMES>
0

> <KWRSJERPS>
0

> <EPACONS>
0

> <IRIS>
0

> <EPAHFR>
0

> <EUCOSMETICS>
0

> <FRENCHLIST>
0

> <HEROMAP>
0

> <ITNANTIBIOTIC>
0

> <KEMIMARKET>
0

> <MASSBANKREF>
0

> <MASSBANKEUSP>
0

> <NEMILIST>
0

> <NATADB>
0

> <NIOSHIDLH>
0

> <NIOSHICSC>
0

> <NIOSHNPG>
0

> <NIOSHSKIN>
0

> <NORMANCT15>
0

> <SFISHFLUORO>
0

> <NORMANPRI>
0

> <NORMANEWS>
0

> <PFASTRIER>
0

> <SWISSPHARMA>
0

> <PPRTVWEB>
0

> <STOCKHOLM>
0

> <STOFFIDENT>
0

> <SCDM>
0

> <EAWAGSURF>
0

> <SWISSPEST>
0

> <TOX21SL>
0

> <TOXCAST>
0

> <TOXCAST_E1K>
0

> <TOXCAST_PH1V2>
0

> <TOXCAST_PH2>
0

> <TOXCAST_PH3>
0

> <TOXCAST_PHASEI>
0

> <TOXCAST_PHASEII>
0

> <TOXCAST_PHASEIII>
0

> <TRIRELEASE>
0

> <TSCASURF>
0

> <UJIBADE>
0

> <ATHENSSUS>
0

> <UATHTARGETS>
0

$$$$
